created on 2020-08-17 12:14                                     ! RUNDES
 Shinacock Inlet Coarse Grid                                    ! RUNID
1                                                               ! NFOVER
1                                                               ! NABOUT
100                                                             ! NSCREEN
567                                                             ! IHOT
2                                                               ! ICS
511111                                                          ! IM
2                                                               ! NOLIBF
2                                                               ! NOLIFA
1                                                               ! NOLICA
1                                                               ! NOLICAT
0                                                               ! NWP
1                                                               ! NCOR
1                                                               ! NTIP
0                                                               ! NWS
8                                                               ! NRAMP
9.81                                                            ! gravitational acceleration
0.005                                                           ! TAU0
2.510781                                                        ! DTDP
0                                                               ! STATIM
0                                                               ! REFTIM
12                                                              ! RNDAY
5.000 0.000 0.000 0.000 5.000 5.000 1.000 0.000 5.000           ! DRAMP
0.35 0.3 0.35                                                   ! A00 B00 C00
0.01 0 0 0.01                                                   ! H0 ? ? VELMIN
-72.4759 40.7602                                                ! SLAM0 SFEA0
0.0025 1 10 0.333333                                            ! CF HBREAK FTHETA FGAMMA
-0.2                                                            ! smagorinsky coefficient
0                                                               ! CORI
8                                                               ! NTIF
Q1 
0.019256 6.49585E-05 0.695 1.03618 254.33
O1 
0.100514 6.75977E-05 0.695 1.03618 114.961
P1 
0.046843 7.25229E-05 0.706 1 308.596
K1 
0.141565 7.29212E-05 0.736 1.02251 42.7178
N2 
0.046398 0.00013788 0.693 0.997548 293.186
M2 
0.242334 0.000140519 0.693 0.997548 153.817
S2 
0.112841 0.000145444 0.693 1 0
K2 
0.030704 0.000145842 0.693 1.03637 265.165
15
Q1 
6.49585E-05 1.03618 254.33 
O1 
6.75977E-05 1.03618 114.961 
P1 
7.25229E-05 1 308.596 
K1 
7.29212E-05 1.02251 42.7178 
N2 
0.00013788 0.997548 293.186 
M2 
0.000140519 0.997548 153.817 
S2 
0.000145444 1 0 
K2 
0.000145842 1.03637 265.165 
Mm 
2.6392E-06 0.989838 220.632 
Mf 
5.32341E-06 1.07521 103.895 
M4 
0.000281038 0.995102 307.635 
MN4 
0.000278399 0.995102 87.003 
MS4 
0.000285963 0.997548 153.817 
2N2 
0.00013524 0.997548 72.554 
S1 
7.27221E-05 1 0 
Q1
1.36661818e-02 1.77364255e+02
1.36661818e-02 1.77364255e+02
1.35881035e-02 1.76956136e+02
1.35881035e-02 1.76956136e+02
1.35881035e-02 1.76956136e+02
1.35881035e-02 1.76956136e+02
1.35881035e-02 1.76956136e+02
1.35881035e-02 1.76956136e+02
1.36452083e-02 1.76556377e+02
1.36452083e-02 1.76556377e+02
1.36452083e-02 1.76556377e+02
1.36452083e-02 1.76556377e+02
1.36452083e-02 1.76556377e+02
1.36452083e-02 1.76556377e+02
1.36452083e-02 1.76556377e+02
1.36452083e-02 1.76556377e+02
1.35982529e-02 1.76051949e+02
1.35982529e-02 1.76051949e+02
1.35982529e-02 1.76051949e+02
1.35982529e-02 1.76051949e+02
1.35982529e-02 1.76051949e+02
1.35982529e-02 1.76051949e+02
1.36404530e-02 1.75341339e+02
1.36404530e-02 1.75341339e+02
1.36404530e-02 1.75341339e+02
1.36180152e-02 1.74671232e+02
1.36180152e-02 1.74671232e+02
1.36180152e-02 1.74671232e+02
1.36180152e-02 1.74671232e+02
1.36180152e-02 1.74671232e+02
1.36180152e-02 1.74671232e+02
1.36180152e-02 1.74671232e+02
1.36180152e-02 1.74671232e+02
1.36180152e-02 1.74671232e+02
1.36091210e-02 1.74015339e+02
1.36091210e-02 1.74015339e+02
1.36091210e-02 1.74015339e+02
1.36091210e-02 1.74015339e+02
1.36091210e-02 1.74015339e+02
1.35675832e-02 1.74944013e+02
1.35675832e-02 1.74944013e+02
1.35675832e-02 1.74944013e+02
1.35675832e-02 1.74944013e+02
1.35713388e-02 1.74287691e+02
1.35713388e-02 1.74287691e+02
1.35713388e-02 1.74287691e+02
1.35713388e-02 1.74287691e+02
1.35713388e-02 1.74287691e+02
1.35713388e-02 1.74287691e+02
1.35713388e-02 1.74287691e+02
1.35713388e-02 1.74287691e+02
1.35713388e-02 1.74287691e+02
1.35713388e-02 1.74287691e+02
1.35849760e-02 1.75231882e+02
1.35849760e-02 1.75231882e+02
1.35849760e-02 1.75231882e+02
1.35778778e-02 1.74541451e+02
1.35778778e-02 1.74541451e+02
1.35778778e-02 1.74541451e+02
1.35778778e-02 1.74541451e+02
1.35778778e-02 1.74541451e+02
1.35778778e-02 1.74541451e+02
1.36134508e-02 1.75472200e+02
1.36134508e-02 1.75472200e+02
1.36134508e-02 1.75472200e+02
1.36134508e-02 1.75472200e+02
1.36134508e-02 1.75472200e+02
1.36134508e-02 1.75472200e+02
1.36134508e-02 1.75472200e+02
1.36134508e-02 1.75472200e+02
1.36134508e-02 1.75472200e+02
1.36250535e-02 1.76927818e+02
1.36250535e-02 1.76927818e+02
1.36250535e-02 1.76927818e+02
1.36250535e-02 1.76927818e+02
O1
6.22558140e-02 1.86857718e+02
6.22558140e-02 1.86857718e+02
6.18710528e-02 1.86668696e+02
6.18710528e-02 1.86668696e+02
6.18710528e-02 1.86668696e+02
6.18710528e-02 1.86668696e+02
6.18710528e-02 1.86668696e+02
6.18710528e-02 1.86668696e+02
6.26146132e-02 1.85878348e+02
6.26146132e-02 1.85878348e+02
6.26146132e-02 1.85878348e+02
6.26146132e-02 1.85878348e+02
6.26146132e-02 1.85878348e+02
6.26146132e-02 1.85878348e+02
6.26146132e-02 1.85878348e+02
6.26146132e-02 1.85878348e+02
6.24737470e-02 1.85543433e+02
6.24737470e-02 1.85543433e+02
6.24737470e-02 1.85543433e+02
6.24737470e-02 1.85543433e+02
6.24737470e-02 1.85543433e+02
6.24737470e-02 1.85543433e+02
6.32852223e-02 1.84415257e+02
6.32852223e-02 1.84415257e+02
6.32852223e-02 1.84415257e+02
6.33595068e-02 1.83834692e+02
6.33595068e-02 1.83834692e+02
6.33595068e-02 1.83834692e+02
6.33595068e-02 1.83834692e+02
6.33595068e-02 1.83834692e+02
6.33595068e-02 1.83834692e+02
6.33595068e-02 1.83834692e+02
6.33595068e-02 1.83834692e+02
6.33595068e-02 1.83834692e+02
6.35358829e-02 1.83247698e+02
6.35358829e-02 1.83247698e+02
6.35358829e-02 1.83247698e+02
6.35358829e-02 1.83247698e+02
6.35358829e-02 1.83247698e+02
6.26234869e-02 1.84714889e+02
6.26234869e-02 1.84714889e+02
6.26234869e-02 1.84714889e+02
6.26234869e-02 1.84714889e+02
6.28546884e-02 1.84145004e+02
6.28546884e-02 1.84145004e+02
6.28546884e-02 1.84145004e+02
6.28546884e-02 1.84145004e+02
6.28546884e-02 1.84145004e+02
6.28546884e-02 1.84145004e+02
6.28546884e-02 1.84145004e+02
6.28546884e-02 1.84145004e+02
6.28546884e-02 1.84145004e+02
6.28546884e-02 1.84145004e+02
6.22294896e-02 1.85839263e+02
6.22294896e-02 1.85839263e+02
6.22294896e-02 1.85839263e+02
6.24423261e-02 1.85279118e+02
6.24423261e-02 1.85279118e+02
6.24423261e-02 1.85279118e+02
6.24423261e-02 1.85279118e+02
6.24423261e-02 1.85279118e+02
6.24423261e-02 1.85279118e+02
6.20476813e-02 1.87205204e+02
6.20476813e-02 1.87205204e+02
6.20476813e-02 1.87205204e+02
6.20476813e-02 1.87205204e+02
6.20476813e-02 1.87205204e+02
6.20476813e-02 1.87205204e+02
6.20476813e-02 1.87205204e+02
6.20476813e-02 1.87205204e+02
6.20476813e-02 1.87205204e+02
6.17158305e-02 1.89961876e+02
6.17158305e-02 1.89961876e+02
6.17158305e-02 1.89961876e+02
6.17158305e-02 1.89961876e+02
P1
2.58582754e-02 1.85162930e+02
2.58582754e-02 1.85162930e+02
2.56486467e-02 1.85017029e+02
2.56486467e-02 1.85017029e+02
2.56486467e-02 1.85017029e+02
2.56486467e-02 1.85017029e+02
2.56486467e-02 1.85017029e+02
2.56486467e-02 1.85017029e+02
2.60365151e-02 1.83901259e+02
2.60365151e-02 1.83901259e+02
2.60365151e-02 1.83901259e+02
2.60365151e-02 1.83901259e+02
2.60365151e-02 1.83901259e+02
2.60365151e-02 1.83901259e+02
2.60365151e-02 1.83901259e+02
2.60365151e-02 1.83901259e+02
2.59481909e-02 1.83568064e+02
2.59481909e-02 1.83568064e+02
2.59481909e-02 1.83568064e+02
2.59481909e-02 1.83568064e+02
2.59481909e-02 1.83568064e+02
2.59481909e-02 1.83568064e+02
2.63378621e-02 1.82065719e+02
2.63378621e-02 1.82065719e+02
2.63378621e-02 1.82065719e+02
2.63431099e-02 1.81439032e+02
2.63431099e-02 1.81439032e+02
2.63431099e-02 1.81439032e+02
2.63431099e-02 1.81439032e+02
2.63431099e-02 1.81439032e+02
2.63431099e-02 1.81439032e+02
2.63431099e-02 1.81439032e+02
2.63431099e-02 1.81439032e+02
2.63431099e-02 1.81439032e+02
2.63949823e-02 1.80815744e+02
2.63949823e-02 1.80815744e+02
2.63949823e-02 1.80815744e+02
2.63949823e-02 1.80815744e+02
2.63949823e-02 1.80815744e+02
2.59735106e-02 1.82792556e+02
2.59735106e-02 1.82792556e+02
2.59735106e-02 1.82792556e+02
2.59735106e-02 1.82792556e+02
2.60733431e-02 1.82241801e+02
2.60733431e-02 1.82241801e+02
2.60733431e-02 1.82241801e+02
2.60733431e-02 1.82241801e+02
2.60733431e-02 1.82241801e+02
2.60733431e-02 1.82241801e+02
2.60733431e-02 1.82241801e+02
2.60733431e-02 1.82241801e+02
2.60733431e-02 1.82241801e+02
2.60733431e-02 1.82241801e+02
2.57657482e-02 1.84691505e+02
2.57657482e-02 1.84691505e+02
2.57657482e-02 1.84691505e+02
2.58893060e-02 1.84126964e+02
2.58893060e-02 1.84126964e+02
2.58893060e-02 1.84126964e+02
2.58893060e-02 1.84126964e+02
2.58893060e-02 1.84126964e+02
2.58893060e-02 1.84126964e+02
2.56902140e-02 1.86998115e+02
2.56902140e-02 1.86998115e+02
2.56902140e-02 1.86998115e+02
2.56902140e-02 1.86998115e+02
2.56902140e-02 1.86998115e+02
2.56902140e-02 1.86998115e+02
2.56902140e-02 1.86998115e+02
2.56902140e-02 1.86998115e+02
2.56902140e-02 1.86998115e+02
2.55263394e-02 1.91055246e+02
2.55263394e-02 1.91055246e+02
2.55263394e-02 1.91055246e+02
2.55263394e-02 1.91055246e+02
K1
7.39939771e-02 1.80329762e+02
7.39939771e-02 1.80329762e+02
7.32503279e-02 1.80178255e+02
7.32503279e-02 1.80178255e+02
7.32503279e-02 1.80178255e+02
7.32503279e-02 1.80178255e+02
7.32503279e-02 1.80178255e+02
7.32503279e-02 1.80178255e+02
7.51678726e-02 1.79360667e+02
7.51678726e-02 1.79360667e+02
7.51678726e-02 1.79360667e+02
7.51678726e-02 1.79360667e+02
7.51678726e-02 1.79360667e+02
7.51678726e-02 1.79360667e+02
7.51678726e-02 1.79360667e+02
7.51678726e-02 1.79360667e+02
7.49044166e-02 1.79085841e+02
7.49044166e-02 1.79085841e+02
7.49044166e-02 1.79085841e+02
7.49044166e-02 1.79085841e+02
7.49044166e-02 1.79085841e+02
7.49044166e-02 1.79085841e+02
7.69885819e-02 1.77912951e+02
7.69885819e-02 1.77912951e+02
7.69885819e-02 1.77912951e+02
7.71473510e-02 1.77374038e+02
7.71473510e-02 1.77374038e+02
7.71473510e-02 1.77374038e+02
7.71473510e-02 1.77374038e+02
7.71473510e-02 1.77374038e+02
7.71473510e-02 1.77374038e+02
7.71473510e-02 1.77374038e+02
7.71473510e-02 1.77374038e+02
7.71473510e-02 1.77374038e+02
7.74606708e-02 1.76849298e+02
7.74606708e-02 1.76849298e+02
7.74606708e-02 1.76849298e+02
7.74606708e-02 1.76849298e+02
7.74606708e-02 1.76849298e+02
7.50229614e-02 1.78470746e+02
7.50229614e-02 1.78470746e+02
7.50229614e-02 1.78470746e+02
7.50229614e-02 1.78470746e+02
7.53848010e-02 1.78047103e+02
7.53848010e-02 1.78047103e+02
7.53848010e-02 1.78047103e+02
7.53848010e-02 1.78047103e+02
7.53848010e-02 1.78047103e+02
7.53848010e-02 1.78047103e+02
7.53848010e-02 1.78047103e+02
7.53848010e-02 1.78047103e+02
7.53848010e-02 1.78047103e+02
7.53848010e-02 1.78047103e+02
7.29761472e-02 1.80208215e+02
7.29761472e-02 1.80208215e+02
7.29761472e-02 1.80208215e+02
7.34048995e-02 1.79859004e+02
7.34048995e-02 1.79859004e+02
7.34048995e-02 1.79859004e+02
7.34048995e-02 1.79859004e+02
7.34048995e-02 1.79859004e+02
7.34048995e-02 1.79859004e+02
7.11010880e-02 1.82650286e+02
7.11010880e-02 1.82650286e+02
7.11010880e-02 1.82650286e+02
7.11010880e-02 1.82650286e+02
7.11010880e-02 1.82650286e+02
7.11010880e-02 1.82650286e+02
7.11010880e-02 1.82650286e+02
7.11010880e-02 1.82650286e+02
7.11010880e-02 1.82650286e+02
6.85564457e-02 1.86889737e+02
6.85564457e-02 1.86889737e+02
6.85564457e-02 1.86889737e+02
6.85564457e-02 1.86889737e+02
N2
1.36713692e-01 3.31388412e+02
1.36713692e-01 3.31388412e+02
1.31119373e-01 3.32141304e+02
1.31119373e-01 3.32141304e+02
1.31119373e-01 3.32141304e+02
1.31119373e-01 3.32141304e+02
1.31119373e-01 3.32141304e+02
1.31119373e-01 3.32141304e+02
1.33393153e-01 3.32652045e+02
1.33393153e-01 3.32652045e+02
1.33393153e-01 3.32652045e+02
1.33393153e-01 3.32652045e+02
1.33393153e-01 3.32652045e+02
1.33393153e-01 3.32652045e+02
1.33393153e-01 3.32652045e+02
1.33393153e-01 3.32652045e+02
1.28746190e-01 3.33097830e+02
1.28746190e-01 3.33097830e+02
1.28746190e-01 3.33097830e+02
1.28746190e-01 3.33097830e+02
1.28746190e-01 3.33097830e+02
1.28746190e-01 3.33097830e+02
1.28330339e-01 3.32983589e+02
1.28330339e-01 3.32983589e+02
1.28330339e-01 3.32983589e+02
1.24274772e-01 3.32923849e+02
1.24274772e-01 3.32923849e+02
1.24274772e-01 3.32923849e+02
1.24274772e-01 3.32923849e+02
1.24274772e-01 3.32923849e+02
1.24274772e-01 3.32923849e+02
1.24274772e-01 3.32923849e+02
1.24274772e-01 3.32923849e+02
1.24274772e-01 3.32923849e+02
1.20846232e-01 3.32827597e+02
1.20846232e-01 3.32827597e+02
1.20846232e-01 3.32827597e+02
1.20846232e-01 3.32827597e+02
1.20846232e-01 3.32827597e+02
1.22422444e-01 3.33746757e+02
1.22422444e-01 3.33746757e+02
1.22422444e-01 3.33746757e+02
1.22422444e-01 3.33746757e+02
1.19850592e-01 3.33611259e+02
1.19850592e-01 3.33611259e+02
1.19850592e-01 3.33611259e+02
1.19850592e-01 3.33611259e+02
1.19850592e-01 3.33611259e+02
1.19850592e-01 3.33611259e+02
1.19850592e-01 3.33611259e+02
1.19850592e-01 3.33611259e+02
1.19850592e-01 3.33611259e+02
1.19850592e-01 3.33611259e+02
1.21739628e-01 3.34992247e+02
1.21739628e-01 3.34992247e+02
1.21739628e-01 3.34992247e+02
1.19174856e-01 3.34563507e+02
1.19174856e-01 3.34563507e+02
1.19174856e-01 3.34563507e+02
1.19174856e-01 3.34563507e+02
1.19174856e-01 3.34563507e+02
1.19174856e-01 3.34563507e+02
1.21140909e-01 3.36060234e+02
1.21140909e-01 3.36060234e+02
1.21140909e-01 3.36060234e+02
1.21140909e-01 3.36060234e+02
1.21140909e-01 3.36060234e+02
1.21140909e-01 3.36060234e+02
1.21140909e-01 3.36060234e+02
1.21140909e-01 3.36060234e+02
1.21140909e-01 3.36060234e+02
1.22210473e-01 3.38946279e+02
1.22210473e-01 3.38946279e+02
1.22210473e-01 3.38946279e+02
1.22210473e-01 3.38946279e+02
M2
5.78533357e-01 3.47958397e+02
5.78533357e-01 3.47958397e+02
5.54944611e-01 3.48477579e+02
5.54944611e-01 3.48477579e+02
5.54944611e-01 3.48477579e+02
5.54944611e-01 3.48477579e+02
5.54944611e-01 3.48477579e+02
5.54944611e-01 3.48477579e+02
5.62873724e-01 3.49226437e+02
5.62873724e-01 3.49226437e+02
5.62873724e-01 3.49226437e+02
5.62873724e-01 3.49226437e+02
5.62873724e-01 3.49226437e+02
5.62873724e-01 3.49226437e+02
5.62873724e-01 3.49226437e+02
5.62873724e-01 3.49226437e+02
5.42422071e-01 3.49581316e+02
5.42422071e-01 3.49581316e+02
5.42422071e-01 3.49581316e+02
5.42422071e-01 3.49581316e+02
5.42422071e-01 3.49581316e+02
5.42422071e-01 3.49581316e+02
5.40676870e-01 3.49809165e+02
5.40676870e-01 3.49809165e+02
5.40676870e-01 3.49809165e+02
5.22521873e-01 3.49782605e+02
5.22521873e-01 3.49782605e+02
5.22521873e-01 3.49782605e+02
5.22521873e-01 3.49782605e+02
5.22521873e-01 3.49782605e+02
5.22521873e-01 3.49782605e+02
5.22521873e-01 3.49782605e+02
5.22521873e-01 3.49782605e+02
5.22521873e-01 3.49782605e+02
5.06897510e-01 3.49744611e+02
5.06897510e-01 3.49744611e+02
5.06897510e-01 3.49744611e+02
5.06897510e-01 3.49744611e+02
5.06897510e-01 3.49744611e+02
5.12060703e-01 3.50190994e+02
5.12060703e-01 3.50190994e+02
5.12060703e-01 3.50190994e+02
5.12060703e-01 3.50190994e+02
4.99812269e-01 3.50174744e+02
4.99812269e-01 3.50174744e+02
4.99812269e-01 3.50174744e+02
4.99812269e-01 3.50174744e+02
4.99812269e-01 3.50174744e+02
4.99812269e-01 3.50174744e+02
4.99812269e-01 3.50174744e+02
4.99812269e-01 3.50174744e+02
4.99812269e-01 3.50174744e+02
4.99812269e-01 3.50174744e+02
5.04414842e-01 3.51062117e+02
5.04414842e-01 3.51062117e+02
5.04414842e-01 3.51062117e+02
4.93339224e-01 3.50809838e+02
4.93339224e-01 3.50809838e+02
4.93339224e-01 3.50809838e+02
4.93339224e-01 3.50809838e+02
4.93339224e-01 3.50809838e+02
4.93339224e-01 3.50809838e+02
4.98270997e-01 3.51915658e+02
4.98270997e-01 3.51915658e+02
4.98270997e-01 3.51915658e+02
4.98270997e-01 3.51915658e+02
4.98270997e-01 3.51915658e+02
4.98270997e-01 3.51915658e+02
4.98270997e-01 3.51915658e+02
4.98270997e-01 3.51915658e+02
4.98270997e-01 3.51915658e+02
5.01416051e-01 3.54036005e+02
5.01416051e-01 3.54036005e+02
5.01416051e-01 3.54036005e+02
5.01416051e-01 3.54036005e+02
S2
1.19367792e-01 1.21552213e+01
1.19367792e-01 1.21552213e+01
1.14072799e-01 1.27548014e+01
1.14072799e-01 1.27548014e+01
1.14072799e-01 1.27548014e+01
1.14072799e-01 1.27548014e+01
1.14072799e-01 1.27548014e+01
1.14072799e-01 1.27548014e+01
1.15511714e-01 1.35980202e+01
1.15511714e-01 1.35980202e+01
1.15511714e-01 1.35980202e+01
1.15511714e-01 1.35980202e+01
1.15511714e-01 1.35980202e+01
1.15511714e-01 1.35980202e+01
1.15511714e-01 1.35980202e+01
1.15511714e-01 1.35980202e+01
1.10990677e-01 1.39598392e+01
1.10990677e-01 1.39598392e+01
1.10990677e-01 1.39598392e+01
1.10990677e-01 1.39598392e+01
1.10990677e-01 1.39598392e+01
1.10990677e-01 1.39598392e+01
1.10048272e-01 1.42021944e+01
1.10048272e-01 1.42021944e+01
1.10048272e-01 1.42021944e+01
1.06081338e-01 1.41116404e+01
1.06081338e-01 1.41116404e+01
1.06081338e-01 1.41116404e+01
1.06081338e-01 1.41116404e+01
1.06081338e-01 1.41116404e+01
1.06081338e-01 1.41116404e+01
1.06081338e-01 1.41116404e+01
1.06081338e-01 1.41116404e+01
1.06081338e-01 1.41116404e+01
1.02727217e-01 1.39951850e+01
1.02727217e-01 1.39951850e+01
1.02727217e-01 1.39951850e+01
1.02727217e-01 1.39951850e+01
1.02727217e-01 1.39951850e+01
1.04581543e-01 1.45013554e+01
1.04581543e-01 1.45013554e+01
1.04581543e-01 1.45013554e+01
1.04581543e-01 1.45013554e+01
1.02017900e-01 1.43598518e+01
1.02017900e-01 1.43598518e+01
1.02017900e-01 1.43598518e+01
1.02017900e-01 1.43598518e+01
1.02017900e-01 1.43598518e+01
1.02017900e-01 1.43598518e+01
1.02017900e-01 1.43598518e+01
1.02017900e-01 1.43598518e+01
1.02017900e-01 1.43598518e+01
1.02017900e-01 1.43598518e+01
1.03863396e-01 1.52766425e+01
1.03863396e-01 1.52766425e+01
1.03863396e-01 1.52766425e+01
1.01540087e-01 1.48313210e+01
1.01540087e-01 1.48313210e+01
1.01540087e-01 1.48313210e+01
1.01540087e-01 1.48313210e+01
1.01540087e-01 1.48313210e+01
1.01540087e-01 1.48313210e+01
1.03514842e-01 1.58933859e+01
1.03514842e-01 1.58933859e+01
1.03514842e-01 1.58933859e+01
1.03514842e-01 1.58933859e+01
1.03514842e-01 1.58933859e+01
1.03514842e-01 1.58933859e+01
1.03514842e-01 1.58933859e+01
1.03514842e-01 1.58933859e+01
1.03514842e-01 1.58933859e+01
1.05281441e-01 1.81233164e+01
1.05281441e-01 1.81233164e+01
1.05281441e-01 1.81233164e+01
1.05281441e-01 1.81233164e+01
K2
2.58964706e-02 2.49882290e+01
2.58964706e-02 2.49882290e+01
2.50000138e-02 2.48009750e+01
2.50000138e-02 2.48009750e+01
2.50000138e-02 2.48009750e+01
2.50000138e-02 2.48009750e+01
2.50000138e-02 2.48009750e+01
2.50000138e-02 2.48009750e+01
2.55090647e-02 2.48329789e+01
2.55090647e-02 2.48329789e+01
2.55090647e-02 2.48329789e+01
2.55090647e-02 2.48329789e+01
2.55090647e-02 2.48329789e+01
2.55090647e-02 2.48329789e+01
2.55090647e-02 2.48329789e+01
2.55090647e-02 2.48329789e+01
2.49727247e-02 2.47142914e+01
2.49727247e-02 2.47142914e+01
2.49727247e-02 2.47142914e+01
2.49727247e-02 2.47142914e+01
2.49727247e-02 2.47142914e+01
2.49727247e-02 2.47142914e+01
2.51695839e-02 2.35498361e+01
2.51695839e-02 2.35498361e+01
2.51695839e-02 2.35498361e+01
2.48542958e-02 2.30318603e+01
2.48542958e-02 2.30318603e+01
2.48542958e-02 2.30318603e+01
2.48542958e-02 2.30318603e+01
2.48542958e-02 2.30318603e+01
2.48542958e-02 2.30318603e+01
2.48542958e-02 2.30318603e+01
2.48542958e-02 2.30318603e+01
2.48542958e-02 2.30318603e+01
2.46522336e-02 2.25352535e+01
2.46522336e-02 2.25352535e+01
2.46522336e-02 2.25352535e+01
2.46522336e-02 2.25352535e+01
2.46522336e-02 2.25352535e+01
2.45511633e-02 2.50137753e+01
2.45511633e-02 2.50137753e+01
2.45511633e-02 2.50137753e+01
2.45511633e-02 2.50137753e+01
2.46290865e-02 2.45912952e+01
2.46290865e-02 2.45912952e+01
2.46290865e-02 2.45912952e+01
2.46290865e-02 2.45912952e+01
2.46290865e-02 2.45912952e+01
2.46290865e-02 2.45912952e+01
2.46290865e-02 2.45912952e+01
2.46290865e-02 2.45912952e+01
2.46290865e-02 2.45912952e+01
2.46290865e-02 2.45912952e+01
2.46235470e-02 2.83224964e+01
2.46235470e-02 2.83224964e+01
2.46235470e-02 2.83224964e+01
2.49240412e-02 2.71152049e+01
2.49240412e-02 2.71152049e+01
2.49240412e-02 2.71152049e+01
2.49240412e-02 2.71152049e+01
2.49240412e-02 2.71152049e+01
2.49240412e-02 2.71152049e+01
2.52485836e-02 3.13052803e+01
2.52485836e-02 3.13052803e+01
2.52485836e-02 3.13052803e+01
2.52485836e-02 3.13052803e+01
2.52485836e-02 3.13052803e+01
2.52485836e-02 3.13052803e+01
2.52485836e-02 3.13052803e+01
2.52485836e-02 3.13052803e+01
2.52485836e-02 3.13052803e+01
2.53006287e-02 3.66301739e+01
2.53006287e-02 3.66301739e+01
2.53006287e-02 3.66301739e+01
2.53006287e-02 3.66301739e+01
Mm
2.10369889e-03 2.37692977e+02
2.10369889e-03 2.37692977e+02
2.10525810e-03 2.37699331e+02
2.10525810e-03 2.37699331e+02
2.10525810e-03 2.37699331e+02
2.10525810e-03 2.37699331e+02
2.10525810e-03 2.37699331e+02
2.10525810e-03 2.37699331e+02
2.07952871e-03 2.39191582e+02
2.07952871e-03 2.39191582e+02
2.07952871e-03 2.39191582e+02
2.07952871e-03 2.39191582e+02
2.07952871e-03 2.39191582e+02
2.07952871e-03 2.39191582e+02
2.07952871e-03 2.39191582e+02
2.07952871e-03 2.39191582e+02
2.08183678e-03 2.39187244e+02
2.08183678e-03 2.39187244e+02
2.08183678e-03 2.39187244e+02
2.08183678e-03 2.39187244e+02
2.08183678e-03 2.39187244e+02
2.08183678e-03 2.39187244e+02
2.05637057e-03 2.40663037e+02
2.05637057e-03 2.40663037e+02
2.05637057e-03 2.40663037e+02
2.05956979e-03 2.40619956e+02
2.05956979e-03 2.40619956e+02
2.05956979e-03 2.40619956e+02
2.05956979e-03 2.40619956e+02
2.05956979e-03 2.40619956e+02
2.05956979e-03 2.40619956e+02
2.05956979e-03 2.40619956e+02
2.05956979e-03 2.40619956e+02
2.05956979e-03 2.40619956e+02
2.06316614e-03 2.40572596e+02
2.06316614e-03 2.40572596e+02
2.06316614e-03 2.40572596e+02
2.06316614e-03 2.40572596e+02
2.06316614e-03 2.40572596e+02
2.08647596e-03 2.39180241e+02
2.08647596e-03 2.39180241e+02
2.08647596e-03 2.39180241e+02
2.08647596e-03 2.39180241e+02
2.08954152e-03 2.39155432e+02
2.08954152e-03 2.39155432e+02
2.08954152e-03 2.39155432e+02
2.08954152e-03 2.39155432e+02
2.08954152e-03 2.39155432e+02
2.08954152e-03 2.39155432e+02
2.08954152e-03 2.39155432e+02
2.08954152e-03 2.39155432e+02
2.08954152e-03 2.39155432e+02
2.08954152e-03 2.39155432e+02
2.11211420e-03 2.37833877e+02
2.11211420e-03 2.37833877e+02
2.11211420e-03 2.37833877e+02
2.11504778e-03 2.37821171e+02
2.11504778e-03 2.37821171e+02
2.11504778e-03 2.37821171e+02
2.11504778e-03 2.37821171e+02
2.11504778e-03 2.37821171e+02
2.11504778e-03 2.37821171e+02
2.13501599e-03 2.36579213e+02
2.13501599e-03 2.36579213e+02
2.13501599e-03 2.36579213e+02
2.13501599e-03 2.36579213e+02
2.13501599e-03 2.36579213e+02
2.13501599e-03 2.36579213e+02
2.13501599e-03 2.36579213e+02
2.13501599e-03 2.36579213e+02
2.13501599e-03 2.36579213e+02
2.15182659e-03 2.35472885e+02
2.15182659e-03 2.35472885e+02
2.15182659e-03 2.35472885e+02
2.15182659e-03 2.35472885e+02
Mf
2.67184255e-03 2.61715273e+02
2.67184255e-03 2.61715273e+02
2.68060545e-03 2.61671882e+02
2.68060545e-03 2.61671882e+02
2.68060545e-03 2.61671882e+02
2.68060545e-03 2.61671882e+02
2.68060545e-03 2.61671882e+02
2.68060545e-03 2.61671882e+02
2.66093952e-03 2.64359414e+02
2.66093952e-03 2.64359414e+02
2.66093952e-03 2.64359414e+02
2.66093952e-03 2.64359414e+02
2.66093952e-03 2.64359414e+02
2.66093952e-03 2.64359414e+02
2.66093952e-03 2.64359414e+02
2.66093952e-03 2.64359414e+02
2.66880403e-03 2.64307864e+02
2.66880403e-03 2.64307864e+02
2.66880403e-03 2.64307864e+02
2.66880403e-03 2.64307864e+02
2.66880403e-03 2.64307864e+02
2.66880403e-03 2.64307864e+02
2.64927424e-03 2.66958118e+02
2.64927424e-03 2.66958118e+02
2.64927424e-03 2.66958118e+02
2.65459995e-03 2.66867833e+02
2.65459995e-03 2.66867833e+02
2.65459995e-03 2.66867833e+02
2.65459995e-03 2.66867833e+02
2.65459995e-03 2.66867833e+02
2.65459995e-03 2.66867833e+02
2.65459995e-03 2.66867833e+02
2.65459995e-03 2.66867833e+02
2.65459995e-03 2.66867833e+02
2.65952248e-03 2.66780326e+02
2.65952248e-03 2.66780326e+02
2.65952248e-03 2.66780326e+02
2.65952248e-03 2.66780326e+02
2.65952248e-03 2.66780326e+02
2.68316877e-03 2.64204441e+02
2.68316877e-03 2.64204441e+02
2.68316877e-03 2.64204441e+02
2.68316877e-03 2.64204441e+02
2.68909176e-03 2.64136695e+02
2.68909176e-03 2.64136695e+02
2.68909176e-03 2.64136695e+02
2.68909176e-03 2.64136695e+02
2.68909176e-03 2.64136695e+02
2.68909176e-03 2.64136695e+02
2.68909176e-03 2.64136695e+02
2.68909176e-03 2.64136695e+02
2.68909176e-03 2.64136695e+02
2.68909176e-03 2.64136695e+02
2.72082844e-03 2.61652080e+02
2.72082844e-03 2.61652080e+02
2.72082844e-03 2.61652080e+02
2.72779607e-03 2.61600410e+02
2.72779607e-03 2.61600410e+02
2.72779607e-03 2.61600410e+02
2.72779607e-03 2.61600410e+02
2.72779607e-03 2.61600410e+02
2.72779607e-03 2.61600410e+02
2.76510593e-03 2.59229644e+02
2.76510593e-03 2.59229644e+02
2.76510593e-03 2.59229644e+02
2.76510593e-03 2.59229644e+02
2.76510593e-03 2.59229644e+02
2.76510593e-03 2.59229644e+02
2.76510593e-03 2.59229644e+02
2.76510593e-03 2.59229644e+02
2.76510593e-03 2.59229644e+02
2.80977258e-03 2.57049982e+02
2.80977258e-03 2.57049982e+02
2.80977258e-03 2.57049982e+02
2.80977258e-03 2.57049982e+02
M4
1.00126605e-02 2.22225365e+02
1.00126605e-02 2.22225365e+02
5.89982529e-03 2.25177882e+02
5.89982529e-03 2.25177882e+02
5.89982529e-03 2.25177882e+02
5.89982529e-03 2.25177882e+02
5.89982529e-03 2.25177882e+02
5.89982529e-03 2.25177882e+02
7.24966006e-03 2.36974980e+02
7.24966006e-03 2.36974980e+02
7.24966006e-03 2.36974980e+02
7.24966006e-03 2.36974980e+02
7.24966006e-03 2.36974980e+02
7.24966006e-03 2.36974980e+02
7.24966006e-03 2.36974980e+02
7.24966006e-03 2.36974980e+02
4.07609770e-03 2.55492337e+02
4.07609770e-03 2.55492337e+02
4.07609770e-03 2.55492337e+02
4.07609770e-03 2.55492337e+02
4.07609770e-03 2.55492337e+02
4.07609770e-03 2.55492337e+02
5.45135133e-03 2.56808784e+02
5.45135133e-03 2.56808784e+02
5.45135133e-03 2.56808784e+02
3.82909515e-03 2.84911633e+02
3.82909515e-03 2.84911633e+02
3.82909515e-03 2.84911633e+02
3.82909515e-03 2.84911633e+02
3.82909515e-03 2.84911633e+02
3.82909515e-03 2.84911633e+02
3.82909515e-03 2.84911633e+02
3.82909515e-03 2.84911633e+02
3.82909515e-03 2.84911633e+02
3.86821888e-03 3.18961265e+02
3.86821888e-03 3.18961265e+02
3.86821888e-03 3.18961265e+02
3.86821888e-03 3.18961265e+02
3.86821888e-03 3.18961265e+02
4.66284563e-03 3.46932275e+02
4.66284563e-03 3.46932275e+02
4.66284563e-03 3.46932275e+02
4.66284563e-03 3.46932275e+02
6.71278593e-03 3.56247260e+02
6.71278593e-03 3.56247260e+02
6.71278593e-03 3.56247260e+02
6.71278593e-03 3.56247260e+02
6.71278593e-03 3.56247260e+02
6.71278593e-03 3.56247260e+02
6.71278593e-03 3.56247260e+02
6.71278593e-03 3.56247260e+02
6.71278593e-03 3.56247260e+02
6.71278593e-03 3.56247260e+02
9.64101088e-03 1.01464220e+01
9.64101088e-03 1.01464220e+01
9.64101088e-03 1.01464220e+01
1.19317453e-02 7.56532391e+00
1.19317453e-02 7.56532391e+00
1.19317453e-02 7.56532391e+00
1.19317453e-02 7.56532391e+00
1.19317453e-02 7.56532391e+00
1.19317453e-02 7.56532391e+00
1.66313580e-02 1.48387846e+01
1.66313580e-02 1.48387846e+01
1.66313580e-02 1.48387846e+01
1.66313580e-02 1.48387846e+01
1.66313580e-02 1.48387846e+01
1.66313580e-02 1.48387846e+01
1.66313580e-02 1.48387846e+01
1.66313580e-02 1.48387846e+01
1.66313580e-02 1.48387846e+01
2.38439926e-02 1.87906293e+01
2.38439926e-02 1.87906293e+01
2.38439926e-02 1.87906293e+01
2.38439926e-02 1.87906293e+01
MN4
1.20081440e-02 1.66076359e+02
1.20081440e-02 1.66076359e+02
9.67476713e-03 1.65664421e+02
9.67476713e-03 1.65664421e+02
9.67476713e-03 1.65664421e+02
9.67476713e-03 1.65664421e+02
9.67476713e-03 1.65664421e+02
9.67476713e-03 1.65664421e+02
9.70513247e-03 1.70693450e+02
9.70513247e-03 1.70693450e+02
9.70513247e-03 1.70693450e+02
9.70513247e-03 1.70693450e+02
9.70513247e-03 1.70693450e+02
9.70513247e-03 1.70693450e+02
9.70513247e-03 1.70693450e+02
9.70513247e-03 1.70693450e+02
7.60576907e-03 1.71914217e+02
7.60576907e-03 1.71914217e+02
7.60576907e-03 1.71914217e+02
7.60576907e-03 1.71914217e+02
7.60576907e-03 1.71914217e+02
7.60576907e-03 1.71914217e+02
7.37922281e-03 1.76447919e+02
7.37922281e-03 1.76447919e+02
7.37922281e-03 1.76447919e+02
5.64566415e-03 1.79160478e+02
5.64566415e-03 1.79160478e+02
5.64566415e-03 1.79160478e+02
5.64566415e-03 1.79160478e+02
5.64566415e-03 1.79160478e+02
5.64566415e-03 1.79160478e+02
5.64566415e-03 1.79160478e+02
5.64566415e-03 1.79160478e+02
5.64566415e-03 1.79160478e+02
4.22258410e-03 1.84023867e+02
4.22258410e-03 1.84023867e+02
4.22258410e-03 1.84023867e+02
4.22258410e-03 1.84023867e+02
4.22258410e-03 1.84023867e+02
4.10280291e-03 1.81042770e+02
4.10280291e-03 1.81042770e+02
4.10280291e-03 1.81042770e+02
4.10280291e-03 1.81042770e+02
2.99706772e-03 1.92486867e+02
2.99706772e-03 1.92486867e+02
2.99706772e-03 1.92486867e+02
2.99706772e-03 1.92486867e+02
2.99706772e-03 1.92486867e+02
2.99706772e-03 1.92486867e+02
2.99706772e-03 1.92486867e+02
2.99706772e-03 1.92486867e+02
2.99706772e-03 1.92486867e+02
2.99706772e-03 1.92486867e+02
2.34724130e-03 1.95639145e+02
2.34724130e-03 1.95639145e+02
2.34724130e-03 1.95639145e+02
2.04658688e-03 2.24022444e+02
2.04658688e-03 2.24022444e+02
2.04658688e-03 2.24022444e+02
2.04658688e-03 2.24022444e+02
2.04658688e-03 2.24022444e+02
2.04658688e-03 2.24022444e+02
1.77947350e-03 2.59591538e+02
1.77947350e-03 2.59591538e+02
1.77947350e-03 2.59591538e+02
1.77947350e-03 2.59591538e+02
1.77947350e-03 2.59591538e+02
1.77947350e-03 2.59591538e+02
1.77947350e-03 2.59591538e+02