created on 2022-02-02 14:40                                     ! RUNDES                              - 32 CHARACTER ALPHANUMERIC RUN DESCRIPTION
Shinacock Inlet Coarse Grid                                     ! RUNID                               - 24 CHARACTER ALPANUMERIC RUN IDENTIFICATION
1                                                               ! NFOVER                              - NONFATAL ERROR OVERRIDE OPTION
1                                                               ! NABOUT                              - ABREVIATED OUTPUT OPTION PARAMETER
100                                                             ! NSCREEN                             - UNIT 6 OUTPUT OPTION PARAMETER
567                                                             ! IHOT                                - HOT START PARAMETER
2                                                               ! ICS                                 - COORDINATE SYSTEM SELECTION PARAMETER
511113                                                          ! IM                                  - MODEL SELECTION PARAMETER
2                                                               ! NOLIBF                              - BOTTOM FRICTION TERM SELECTION PARAM; before NWP==1, '2' was used
2                                                               ! NOLIFA                              - FINITE AMPLITUDE TERM SELECTION PARAMETER
1                                                               ! NOLICA                              - SPATIAL DERIVATIVE CONVECTIVE SELECTION PARAMETER
1                                                               ! NOLICAT                             - TIME DERIVATIVE CONVECTIVE TERM SELECTION PARAMETER
1                                                               ! NWP                                 - VARIABLE BOTTOM FRICTION AND LATERAL VISCOSITY OPTION PARAMETER; default 0
primitive_weighting_in_continuity_equation
1                                                               ! NCOR                                - VARIABLE CORIOLIS IN SPACE OPTION PARAMETER
1                                                               ! NTIP                                - TIDAL POTENTIAL OPTION PARAMETER
20                                                              ! NWS                                 - WIND STRESS AND BAROMETRIC PRESSURE OPTION PARAMETER
8                                                               ! NRAMP                               - RAMP FUNCTION OPTION
9.81                                                            ! G                                   - ACCELERATION DUE TO GRAVITY - DETERMINES UNITS
-3                                                              ! TAU0                                - WEIGHTING FACTOR IN GWCE; original, 0.005
10.000000                                                       ! DTDP                                - TIME STEP (IN SECONDS)
0                                                               ! STATIM                              - STARTING TIME (IN DAYS)
0                                                               ! REFTIM                              - REFERENCE TIME (IN DAYS)
2018 09 17 12 06 0.9 1                                          ! WTIMINC                             - meteorological data time increment
1                                                               ! RNDAY                               - TOTAL LENGTH OF SIMULATION (IN DAYS)
0.500 0.000 0.000 0.000 0.500 0.500 1.000 0.000 0.500           ! DRAMP                               - DURATION OF RAMP FUNCTION (IN DAYS)
0.5 0.5 0                                                       ! A00 B00 C00                         - TIME WEIGHTING FACTORS FOR THE GWCE EQUATION
0.01 0 0 0.01                                                   ! H0 NODEDRYMIN NODEWETRMP VELMIN    
-72.47588186015 40.7602221247                                   ! SLAM0 SFEA0                         - CENTER OF CPP PROJECTION (NOT USED IF ICS=1, NTIP=0, NCOR=0)
0.0025 1 10 0.333333                                            ! CF HBREAK FTHETA FGAMMA            
-0.2                                                            ! smagorinsky coefficient             - LATERAL EDDY VISCOSITY COEFFICIENT; IGNORED IF NWP =1
0                                                               ! CORI                                - CORIOLIS PARAMETER - IGNORED IF NCOR = 1
8                                                               ! NTIF                                - NUMBER OF TIDAL POTENTIAL CONSTITUENTS BEING FORCED starting 2008082300
Q1
0.019256 6.49585E-05 0.695 0.91442 124.682
O1
0.100514 6.75977E-05 0.695 0.91442 272.317
P1
0.046843 7.25229E-05 0.706 1 93.128
K1
0.141565 7.29212E-05 0.736 0.947379 258.815
N2
0.046398 0.00013788 0.693 1.02061 19.4861
M2
0.242334 0.000140519 0.693 1.02061 167.121
S2
0.112841 0.000145444 0.693 1 0
K2
0.030704 0.000145842 0.693 0.862537 338.248
8
Q1
6.49585E-05 0.91442 124.682
O1
6.75977E-05 0.91442 272.317
P1
7.25229E-05 1 93.128
K1
7.29212E-05 0.947379 258.815
N2
0.00013788 1.02061 19.4861
M2
0.000140519 1.02061 167.121
S2
0.000145444 1 0
K2
0.000145842 0.862537 338.248
Q1
1.17940985e-02 1.73069764e+02
1.13893401e-02 1.83698935e+02
1.21085823e-02 1.73352953e+02
1.20789492e-02 1.73360490e+02
1.20501888e-02 1.73366612e+02
1.20211528e-02 1.73376446e+02
1.19934845e-02 1.73353842e+02
1.19820075e-02 1.73252919e+02
1.19771701e-02 1.73155633e+02
1.19732581e-02 1.73058345e+02
1.19699197e-02 1.72960608e+02
1.19680418e-02 1.72862105e+02
1.19669661e-02 1.72763308e+02
1.19670766e-02 1.72664629e+02
1.19697945e-02 1.72566062e+02
1.19920157e-02 1.72469248e+02
1.20140944e-02 1.72365749e+02
1.20299010e-02 1.72263645e+02
1.20389109e-02 1.72167117e+02
1.20460631e-02 1.72074895e+02
1.20533925e-02 1.71982215e+02
1.20601930e-02 1.71891223e+02
1.20663477e-02 1.71804842e+02
1.20725507e-02 1.71718264e+02
1.20774651e-02 1.71636919e+02
1.20811756e-02 1.71561428e+02
1.20851099e-02 1.71485005e+02
1.20877010e-02 1.71414435e+02
1.20894371e-02 1.71347717e+02
1.20914193e-02 1.71279854e+02
1.20868847e-02 1.71220247e+02
1.20984278e-02 1.71165659e+02
1.21139026e-02 1.71111330e+02
1.21254190e-02 1.71068377e+02
1.21388436e-02 1.71019922e+02
1.21514260e-02 1.70973887e+02
1.21599246e-02 1.70939692e+02
1.21632933e-02 1.70932441e+02
1.21714780e-02 1.70928254e+02
1.21765704e-02 1.70926527e+02
1.21787371e-02 1.70930959e+02
1.21825058e-02 1.70930318e+02
1.21827635e-02 1.70940763e+02
1.21812590e-02 1.70956734e+02
1.21703375e-02 1.70991816e+02
1.21518615e-02 1.71041320e+02
1.21340757e-02 1.71116097e+02
1.21144276e-02 1.71209679e+02
1.20964404e-02 1.71287004e+02
1.20853854e-02 1.71316979e+02
1.20749981e-02 1.71341666e+02
1.20627382e-02 1.71348275e+02
1.20503307e-02 1.71355024e+02
1.20379151e-02 1.71356734e+02
1.20251078e-02 1.71358397e+02
1.20114218e-02 1.71361765e+02
1.19975267e-02 1.71357918e+02
1.19832220e-02 1.71318350e+02
1.19687216e-02 1.71278680e+02
1.19545362e-02 1.71239209e+02
1.19396630e-02 1.71202923e+02
1.19246202e-02 1.71167066e+02
1.19093687e-02 1.71131400e+02
1.18875160e-02 1.71098012e+02
1.18568164e-02 1.71066785e+02
1.18256125e-02 1.71035976e+02
1.17942133e-02 1.71005536e+02
1.17627968e-02 1.70975257e+02
1.17418940e-02 1.70926479e+02
1.17267323e-02 1.70869740e+02
1.17363560e-02 1.71317267e+02
1.17463161e-02 1.71763187e+02
1.17568855e-02 1.72204623e+02
1.17685268e-02 1.72637761e+02
1.17802916e-02 1.73069629e+02
O1
4.78577634e-02 1.95367552e+02
3.79374677e-02 1.78529759e+02
4.03967701e-02 1.78123913e+02
4.28200109e-02 1.77731749e+02
4.51656741e-02 1.77366887e+02
4.75357750e-02 1.76993574e+02
4.92892606e-02 1.76733821e+02
4.94857457e-02 1.76763816e+02
4.97030270e-02 1.76805761e+02
4.99134845e-02 1.76855947e+02
5.01195344e-02 1.76912166e+02
5.03136860e-02 1.76983401e+02
5.05010736e-02 1.77062770e+02
5.06774669e-02 1.77153661e+02
5.08389700e-02 1.77262667e+02
5.10183622e-02 1.77399640e+02
5.11800077e-02 1.77549886e+02
5.13382104e-02 1.77692540e+02
5.15003881e-02 1.77821462e+02
5.16291295e-02 1.77966874e+02
5.17613165e-02 1.78110203e+02
5.19046569e-02 1.78206150e+02
5.20360673e-02 1.78308300e+02
5.21683835e-02 1.78410096e+02
5.22815622e-02 1.78518561e+02
5.23826393e-02 1.78627645e+02
5.24878540e-02 1.78735186e+02
5.25680890e-02 1.78851412e+02
5.26323532e-02 1.78972884e+02
5.27012339e-02 1.79092925e+02
5.27505285e-02 1.79230215e+02
5.28028454e-02 1.79384889e+02
5.28631887e-02 1.79513618e+02
5.28848241e-02 1.79660037e+02
5.29249489e-02 1.79798298e+02
5.29568338e-02 1.79940333e+02
5.29497414e-02 1.80098535e+02
5.28891340e-02 1.80272718e+02
5.28637981e-02 1.80430493e+02
5.28101623e-02 1.80598723e+02
5.27304792e-02 1.80775497e+02
5.26649529e-02 1.80970544e+02
5.25686829e-02 1.81217398e+02
5.24573306e-02 1.81469320e+02
5.23370970e-02 1.81707443e+02
5.22160229e-02 1.81930710e+02
5.20876373e-02 1.82210064e+02
5.19304783e-02 1.82521320e+02
5.17643380e-02 1.82829153e+02
5.16211763e-02 1.83118233e+02
5.14917882e-02 1.83405102e+02
5.13228030e-02 1.83695281e+02
5.11505859e-02 1.83985389e+02
5.09865971e-02 1.84278005e+02
5.08145092e-02 1.84569938e+02
5.06484169e-02 1.84814595e+02
5.04966019e-02 1.85049198e+02
5.03564517e-02 1.85350502e+02
5.02105368e-02 1.85650927e+02
5.00735975e-02 1.85952373e+02
4.99130047e-02 1.86251624e+02
4.97392538e-02 1.86551934e+02
4.95538992e-02 1.86846418e+02
4.93725542e-02 1.87149130e+02
4.92465548e-02 1.87492167e+02
4.90871799e-02 1.87851896e+02
4.89048885e-02 1.88224478e+02
4.87207226e-02 1.88593924e+02
4.85306018e-02 1.88953313e+02
4.83395407e-02 1.89313371e+02
4.82661837e-02 1.90576382e+02
4.81908495e-02 1.91831994e+02
4.81119864e-02 1.93069508e+02
4.80269313e-02 1.94273959e+02
4.79411731e-02 1.95473663e+02
P1
2.77636120e-02 1.97069071e+02
2.39791106e-02 2.20627560e+02
2.55117562e-02 2.13441513e+02
2.70220036e-02 2.06350152e+02
2.84840460e-02 1.99465436e+02
2.99612748e-02 1.92515419e+02
3.10346591e-02 1.87451767e+02
3.10372433e-02 1.87444980e+02
3.10456597e-02 1.87443822e+02
3.10534838e-02 1.87443863e+02
3.10601607e-02 1.87443403e+02
3.10639165e-02 1.87437443e+02
3.10660678e-02 1.87406149e+02
3.10658468e-02 1.87373904e+02
3.10622561e-02 1.87339984e+02
3.10602585e-02 1.87300547e+02
3.10547799e-02 1.87260402e+02
3.10475057e-02 1.87221826e+02
3.10397248e-02 1.87185213e+02
3.10261223e-02 1.87148723e+02
3.10130516e-02 1.87111889e+02
3.09983907e-02 1.87050349e+02
3.09817562e-02 1.86989268e+02
3.09652451e-02 1.86928114e+02
3.09500618e-02 1.86869001e+02
3.09421942e-02 1.86812701e+02
3.09348308e-02 1.86756040e+02
3.09245115e-02 1.86701767e+02
3.09123445e-02 1.86649119e+02
3.09006998e-02 1.86595974e+02
3.08814070e-02 1.86551615e+02
3.08501402e-02 1.86521506e+02
3.08182832e-02 1.86484327e+02
3.07809992e-02 1.86456075e+02
3.07462324e-02 1.86423516e+02
3.07103080e-02 1.86392856e+02
3.06693435e-02 1.86371432e+02
3.06292975e-02 1.86363528e+02
3.06032950e-02 1.86347410e+02
3.05735905e-02 1.86338194e+02
3.05406440e-02 1.86335492e+02
3.05094351e-02 1.86335098e+02
3.04745194e-02 1.86353480e+02
3.04378675e-02 1.86376041e+02
3.03987604e-02 1.86400797e+02
3.03583089e-02 1.86425557e+02
3.03186508e-02 1.86460368e+02
3.02768920e-02 1.86506779e+02
3.02366651e-02 1.86560241e+02
3.02033615e-02 1.86616469e+02
3.01707879e-02 1.86667891e+02
3.01364099e-02 1.86733058e+02
3.01019175e-02 1.86799338e+02
3.00758292e-02 1.86865681e+02
3.00502147e-02 1.86935046e+02
3.00089645e-02 1.87025238e+02
2.99598986e-02 1.87127514e+02
2.99104402e-02 1.87247019e+02
2.98608545e-02 1.87368214e+02
2.98115166e-02 1.87486693e+02
2.97617711e-02 1.87606122e+02
2.97120370e-02 1.87715320e+02
2.96627614e-02 1.87824312e+02
2.96144013e-02 1.87932132e+02
2.95649149e-02 1.88040133e+02
2.95161676e-02 1.88168359e+02
2.94680521e-02 1.88311847e+02
2.94202056e-02 1.88454321e+02
2.93732248e-02 1.88593537e+02
2.93254302e-02 1.88737956e+02
2.90071434e-02 1.90429343e+02
2.86900529e-02 1.92114957e+02
2.83762520e-02 1.93784200e+02
2.80685313e-02 1.95423100e+02
2.77617353e-02 1.97057324e+02
K1
7.24141814e-02 1.79513779e+02
6.39327411e-02 1.75237072e+02
6.80804771e-02 1.74586196e+02
7.21663730e-02 1.73945369e+02
7.61195168e-02 1.73326023e+02
8.01144590e-02 1.72699920e+02
8.30231345e-02 1.72262683e+02
8.30786711e-02 1.72363452e+02
8.31354862e-02 1.72475802e+02
8.31836041e-02 1.72587953e+02
8.32263197e-02 1.72700026e+02
8.32552382e-02 1.72811483e+02
8.32765640e-02 1.72922460e+02
8.32866011e-02 1.73032113e+02
8.32810817e-02 1.73140095e+02
8.32933147e-02 1.73250202e+02
8.32879997e-02 1.73357856e+02
8.32858762e-02 1.73463989e+02
8.32946813e-02 1.73569651e+02
8.32756804e-02 1.73668381e+02
8.32592496e-02 1.73767483e+02
8.32351393e-02 1.73837599e+02
8.32015380e-02 1.73905601e+02
8.31685619e-02 1.73973794e+02
8.31277783e-02 1.74038202e+02
8.30921509e-02 1.74099977e+02
8.30592678e-02 1.74162640e+02
8.30102624e-02 1.74219772e+02
8.29511634e-02 1.74273284e+02
8.28949218e-02 1.74327866e+02
8.28158288e-02 1.74385489e+02
8.27261342e-02 1.74433325e+02
8.26456486e-02 1.74473857e+02
8.25392054e-02 1.74508481e+02
8.24449358e-02 1.74545986e+02
8.23451334e-02 1.74582235e+02
8.22204666e-02 1.74612206e+02
8.20742280e-02 1.74637093e+02
8.19630908e-02 1.74674228e+02
8.18344284e-02 1.74706260e+02
8.16903307e-02 1.74733294e+02
8.15398375e-02 1.74771164e+02
8.13442058e-02 1.74817994e+02
8.11395560e-02 1.74862041e+02
8.09357165e-02 1.74899610e+02
8.07369587e-02 1.74932656e+02
8.05119061e-02 1.74996574e+02
8.02613535e-02 1.75068819e+02
8.00128720e-02 1.75121092e+02
7.97909401e-02 1.75139584e+02
7.95747243e-02 1.75164391e+02
7.93439365e-02 1.75170078e+02
7.91121669e-02 1.75174096e+02
7.88887582e-02 1.75191473e+02
7.86638210e-02 1.75205223e+02
7.84472807e-02 1.75178819e+02
7.82346483e-02 1.75138858e+02
7.80082045e-02 1.75111911e+02
7.77808601e-02 1.75081574e+02
7.75551373e-02 1.75056457e+02
7.73264079e-02 1.75018894e+02
7.70973855e-02 1.74976996e+02
7.68697793e-02 1.74928082e+02
7.66451177e-02 1.74873888e+02
7.64164726e-02 1.74842482e+02
7.61619440e-02 1.74800925e+02
7.58879329e-02 1.74753142e+02
7.56158400e-02 1.74703705e+02
7.53499079e-02 1.74649003e+02
7.50846140e-02 1.74597204e+02
7.45195817e-02 1.75608421e+02
7.39585620e-02 1.76614997e+02
7.34069773e-02 1.77609524e+02
7.28725542e-02 1.78581902e+02
7.23405409e-02 1.79551002e+02
N2
1.21859723e-01 2.04783594e+02
1.00892997e-01 2.72404213e+02
1.07287245e-01 2.84727230e+02
1.13581222e-01 2.96886645e+02
1.19661285e-01 3.08689392e+02
1.25808608e-01 3.20604821e+02
1.30222286e-01 3.29305020e+02
1.30062414e-01 3.29392985e+02
1.29902024e-01 3.29492607e+02
1.29729908e-01 3.29593182e+02
1.29549964e-01 3.29693394e+02
1.29347679e-01 3.29787752e+02
1.29116240e-01 3.29854733e+02
1.28871004e-01 3.29919995e+02
1.28603042e-01 3.29983329e+02
1.28282955e-01 3.30057082e+02
1.27949199e-01 3.30127218e+02
1.27627552e-01 3.30197158e+02
1.27324496e-01 3.30268519e+02
1.27009664e-01 3.30332223e+02
1.26695723e-01 3.30396343e+02
1.26379101e-01 3.30431342e+02
1.26058890e-01 3.30464027e+02
1.25738702e-01 3.30496893e+02
1.25415343e-01 3.30526968e+02
1.25091019e-01 3.30556728e+02
1.24766708e-01 3.30587304e+02
1.24443721e-01 3.30612912e+02
1.24122257e-01 3.30635322e+02
1.23800163e-01 3.30658663e+02
1.23481453e-01 3.30681322e+02
1.23195147e-01 3.30731206e+02
1.22897107e-01 3.30768776e+02
1.22615181e-01 3.30803137e+02
1.22325050e-01 3.30839092e+02
1.22038333e-01 3.30874365e+02
1.21770718e-01 3.30906063e+02
1.21556522e-01 3.30933426e+02
1.21351791e-01 3.30966359e+02
1.21162189e-01 3.30996317e+02
1.20988102e-01 3.31023278e+02
1.20812688e-01 3.31061450e+02
1.20670448e-01 3.31113723e+02
1.20538884e-01 3.31164477e+02
1.20424219e-01 3.31202546e+02
1.20319799e-01 3.31229990e+02
1.20240079e-01 3.31271946e+02
1.20190881e-01 3.31318141e+02
1.20139663e-01 3.31367360e+02
1.20049561e-01 3.31426394e+02
1.19949523e-01 3.31485964e+02
1.19880264e-01 3.31543256e+02
1.19813764e-01 3.31600279e+02
1.19764246e-01 3.31651398e+02
1.19724204e-01 3.31701110e+02
1.19701320e-01 3.31774240e+02
1.19673199e-01 3.31863387e+02
1.19607754e-01 3.31965912e+02
1.19546909e-01 3.32067477e+02
1.19479093e-01 3.32170402e+02
1.19418470e-01 3.32263542e+02
1.19341100e-01 3.32340698e+02
1.19270699e-01 3.32411686e+02
1.19181954e-01 3.32483134e+02
1.19035096e-01 3.32583074e+02
1.18915579e-01 3.32689987e+02
1.18816298e-01 3.32803206e+02
1.18718439e-01 3.32914152e+02
1.18625138e-01 3.33017828e+02
1.18536055e-01 3.33016653e+02
1.19185342e-01 3.07237919e+02
1.19834735e-01 2.81523922e+02
1.20482261e-01 2.56015198e+02
1.21125964e-01 2.30890590e+02
1.21768816e-01 2.05827798e+02
M2
4.83605669e-01 2.20112655e+02
4.17823412e-01 3.11130902e+02
4.44913133e-01 3.18628023e+02
4.71558150e-01 3.26026894e+02
4.97259593e-01 3.33211178e+02
5.23257355e-01 3.40463284e+02
5.41888786e-01 3.45769657e+02
5.41058162e-01 3.45882983e+02
5.40140665e-01 3.46003087e+02
5.39145517e-01 3.46122085e+02
5.38101205e-01 3.46240828e+02
5.36936701e-01 3.46358483e+02
5.35707863e-01 3.46475392e+02
5.34391227e-01 3.46590551e+02
5.32937780e-01 3.46703952e+02
5.31317377e-01 3.46830938e+02
5.29593815e-01 3.46953791e+02
5.27851372e-01 3.47069295e+02
5.26129284e-01 3.47178660e+02
5.24279561e-01 3.47276988e+02
5.22441536e-01 3.47376094e+02
5.20654229e-01 3.47447146e+02
5.18824607e-01 3.47514648e+02
5.16996612e-01 3.47582439e+02
5.15143403e-01 3.47646175e+02
5.13320350e-01 3.47710045e+02
5.11503812e-01 3.47775222e+02
5.09656534e-01 3.47832369e+02
5.07793737e-01 3.47884317e+02
5.05934264e-01 3.47937787e+02
5.04004778e-01 3.47980897e+02
5.02440007e-01 3.48073221e+02
5.00820043e-01 3.48141997e+02
4.99224635e-01 3.48203460e+02
4.97614550e-01 3.48268523e+02
4.96009600e-01 3.48332033e+02
4.94446036e-01 3.48387574e+02
4.93031798e-01 3.48435480e+02
4.91640933e-01 3.48498034e+02
4.90291319e-01 3.48553996e+02
4.88990070e-01 3.48603394e+02
4.87719720e-01 3.48671848e+02
4.86623674e-01 3.48760987e+02
4.85567203e-01 3.48846606e+02
4.84569486e-01 3.48910930e+02
4.83606903e-01 3.48957861e+02
4.82696378e-01 3.49026466e+02
4.81890274e-01 3.49099203e+02
4.81127737e-01 3.49176891e+02
4.80309641e-01 3.49273904e+02
4.79438438e-01 3.49372746e+02
4.78735601e-01 3.49465000e+02
4.78048257e-01 3.49556568e+02
4.77403889e-01 3.49635479e+02
4.76809016e-01 3.49711134e+02
4.76503022e-01 3.49824655e+02
4.76254058e-01 3.49961192e+02
4.75733866e-01 3.50103255e+02
4.75240628e-01 3.50243140e+02
4.74706684e-01 3.50386207e+02
4.74229320e-01 3.50514772e+02
4.73687727e-01 3.50625177e+02
4.73194913e-01 3.50726085e+02
4.72617392e-01 3.50819435e+02
4.71696834e-01 3.50944527e+02
4.70988319e-01 3.51074724e+02
4.70436669e-01 3.51210448e+02
4.69894471e-01 3.51342847e+02
4.69382513e-01 3.51464616e+02
4.68892169e-01 3.51478119e+02
4.71723731e-01 3.25083086e+02
4.74559801e-01 2.98753105e+02
4.77395433e-01 2.72630955e+02
4.80228035e-01 2.46897948e+02
4.83058572e-01 2.21227733e+02
S2
1.17248923e-01 2.27815587e+01
9.55332752e-02 5.27716328e+01
1.01727604e-01 4.33217911e+01
1.07823677e-01 3.39973551e+01
1.13710426e-01 2.49463309e+01
1.19662971e-01 1.58089260e+01
1.23912118e-01 9.17446790e+00
1.23647787e-01 9.27630474e+00
1.23377572e-01 9.37879024e+00
1.23097098e-01 9.47795567e+00
1.22809805e-01 9.57497975e+00
1.22506378e-01 9.66623485e+00
1.22194504e-01 9.75421403e+00
1.21871938e-01 9.83688396e+00
1.21529555e-01 9.91153716e+00
1.21102358e-01 9.97672752e+00
1.20669166e-01 1.00350360e+01
1.20252299e-01 1.00914798e+01
1.19855254e-01 1.01488766e+01
1.19462097e-01 1.01933260e+01
1.19068068e-01 1.02386967e+01
1.18655181e-01 1.02555832e+01
1.18244479e-01 1.02683416e+01
1.17833345e-01 1.02813908e+01
1.17430964e-01 1.02889356e+01
1.17038957e-01 1.02944258e+01
1.16644840e-01 1.03012256e+01
1.16264937e-01 1.03002344e+01
1.15894833e-01 1.02943174e+01
1.15521698e-01 1.02898086e+01
1.15173123e-01 1.02837639e+01
1.14836151e-01 1.02921406e+01
1.14507810e-01 1.02901135e+01
1.14213032e-01 1.02814293e+01
1.13901707e-01 1.02759018e+01
1.13597511e-01 1.02689565e+01
1.13330019e-01 1.02554383e+01
1.13124833e-01 1.02348141e+01
1.12890927e-01 1.02223416e+01
1.12685877e-01 1.02051131e+01
1.12509280e-01 1.01835672e+01
1.12324279e-01 1.01716999e+01
1.12187941e-01 1.01684919e+01
1.12070028e-01 1.01631718e+01
1.11987471e-01 1.01479220e+01
1.11927982e-01 1.01248269e+01
1.11904783e-01 1.01133915e+01
1.11929251e-01 1.01043088e+01
1.11945036e-01 1.00954346e+01
1.11887822e-01 1.00911095e+01
1.11816122e-01 1.00879427e+01
1.11788446e-01 1.00813576e+01
1.11764629e-01 1.00744836e+01
1.11766266e-01 1.00642293e+01
1.11781135e-01 1.00528794e+01
1.11791161e-01 1.00581951e+01
1.11790005e-01 1.00762465e+01
1.11790754e-01 1.01096051e+01
1.11798658e-01 1.01425409e+01
1.11795609e-01 1.01760881e+01
1.11808848e-01 1.02021564e+01
1.11807915e-01 1.02137644e+01
1.11818460e-01 1.02215122e+01
1.11806305e-01 1.02296711e+01
1.11710534e-01 1.02555163e+01
1.11638154e-01 1.02980779e+01
1.11581903e-01 1.03542153e+01
1.11528281e-01 1.04086689e+01
1.11483058e-01 1.04577416e+01
1.11444752e-01 1.05150747e+01
1.12577556e-01 1.30068084e+01
1.13710644e-01 1.54899114e+01
1.14840665e-01 1.79486568e+01
1.15964353e-01 2.03622746e+01
1.17086597e-01 2.27689523e+01
K2
2.70764097e-02 2.04341770e+01
2.64366106e-02 3.18940471e+01
2.79369274e-02 2.11382069e+01
2.94414143e-02 1.03221912e+01
2.97873096e-02 7.81166816e+00
2.97800878e-02 7.86708737e+00
2.97530301e-02 7.93050056e+00
2.96908164e-02 8.03697432e+00
2.96268969e-02 8.14967009e+00
2.95600056e-02 8.26017986e+00
2.94913499e-02 8.36853812e+00
2.94152404e-02 8.46780211e+00
2.93179696e-02 8.54478226e+00
2.92179126e-02 8.61635444e+00
2.91132879e-02 8.68021441e+00
2.90001841e-02 8.74480550e+00
2.88843118e-02 8.80147041e+00
2.87795625e-02 8.85757615e+00
2.86880309e-02 8.91650880e+00
2.85968058e-02 8.96106354e+00
2.85052359e-02 9.00667261e+00
2.83932481e-02 9.02339998e+00
2.82817980e-02 9.03550944e+00
2.81702341e-02 9.04794273e+00
2.80658073e-02 9.05346762e+00
2.79745223e-02 9.05506888e+00
2.78826255e-02 9.05813657e+00
2.77947531e-02 9.05249956e+00
2.77096128e-02 9.04136863e+00
2.76236381e-02 9.03180568e+00
2.75413708e-02 9.02004620e+00
2.74488592e-02 9.02412643e+00
2.73549735e-02 9.01886159e+00
2.72695879e-02 9.00563439e+00
2.71799919e-02 8.99617758e+00
2.70922005e-02 8.98502476e+00
2.70138177e-02 8.96604034e+00
2.69546448e-02 8.94040194e+00
2.68923402e-02 8.92696610e+00
2.68373434e-02 8.90778576e+00
2.67895742e-02 8.88337857e+00
2.67378025e-02 8.86767599e+00
2.66949244e-02 8.85681736e+00
2.66566592e-02 8.84325322e+00
2.66323458e-02 8.82024767e+00
2.66183480e-02 8.79011214e+00
2.66174263e-02 8.77197112e+00
2.66296870e-02 8.75527539e+00
2.66384765e-02 8.73785165e+00
2.66270061e-02 8.72469634e+00
2.66123839e-02 8.71336088e+00
2.66073291e-02 8.69672764e+00
2.66031117e-02 8.67965465e+00
2.65905333e-02 8.65835203e+00
2.65796395e-02 8.63547567e+00
2.65759604e-02 8.62986175e+00
2.65742284e-02 8.63580338e+00
2.65766600e-02 8.64835943e+00
2.65813231e-02 8.66015307e+00
2.65825674e-02 8.67310043e+00
2.65886892e-02 8.67830788e+00
2.65899141e-02 8.67094354e+00
2.65946027e-02 8.65968546e+00
2.65931417e-02 8.65005463e+00
2.65674803e-02 8.65986251e+00
2.65554983e-02 8.68171134e+00
2.65534642e-02 8.71358757e+00
2.65520202e-02 8.74397360e+00
2.65524597e-02 8.76959992e+00
2.65537767e-02 8.80324191e+00
2.66510979e-02 1.11643023e+01
2.67488871e-02 1.35173276e+01
2.68472571e-02 1.58475451e+01
2.69465780e-02 1.81354841e+01
2.70459553e-02 2.04169051e+01
110                                                             ! ANGINN                              - INNER ANGLE THRESHOLD
-5 0.5 1 36                                                     ! NOUTE TOUTSE TOUTFE NSPOOLE         - ELEV STATION OUTPUT INFO (UNIT 61)
398                                                             ! NSTAE                               - TOTAL NUMBER OF ELEVATION RECORDING STATIONS
-64.7033 32.3734                                                ! 2695540                            
-66.982578 44.904494                                            ! 8410140                            
-67.10853 44.871053                                             ! 8410714                            
-67.12502 44.91991                                              ! 8410715                            
-67.14069 45.13007                                              ! 8410834                            
-67.14943 44.82265                                              ! 8410864                            
-67.18715 44.6494                                               ! 8411060                            
-67.2968 44.64094                                               ! 8411250                            
-67.86194 44.52919                                              ! 8412581                            
-68.203789 44.393117                                            ! 8413320                            
-68.43312 44.17317                                              ! 8413825                            
-68.62019 44.19361                                              ! 8414249                            
-68.771994 44.787951                                            ! 8414612                            
-68.81209 44.47508                                              ! 8414721                            
-68.88961 44.16648                                              ! 8414888                            
-69.1017 44.105                                                 ! 8415490                            
-69.178821 44.068193                                            ! 8415709                            
-69.78472 43.75527                                              ! 8417177                            
-69.7971 44.0872                                                ! 8417208                            
-69.8088 43.925                                                 ! 8417227                            
-70.246 43.6561                                                 ! 8418150                            
-70.332532 43.537879                                            ! 8418445                            
-70.3817 43.4617                                                ! 8418606                            
-70.558922 43.321488                                            ! 8419317                            
-70.741866 43.078187                                            ! 8419870                            
-70.71028 43.07173                                              ! 8423898                            
-70.908 42.836                                                  ! 8440273                            
-70.82 42.8167                                                  ! 8440452                            
-70.8733 42.815                                                 ! 8440466                            
-70.61431 42.66124                                              ! 8441551                            
-70.87414 42.523327                                             ! 8442645                            
-70.943601 42.454448                                            ! 8443187                            
-71.0451 42.35831                                               ! 8443970                            
-70.8917 42.3283                                                ! 8444162                            
-70.95042 42.28219                                              ! 8444525                            
-70.96102 42.24973                                              ! 8444788                            
-70.720915 42.202642                                            ! 8445138                            
-70.635801 42.08222                                             ! 8446009                            
-70.17961 42.04799                                              ! 8446121                            
-70.66548 42.03619                                              ! 8446166                            
-70.659176 41.96194                                             ! 8446493                            
-70.535 41.775                                                  ! 8447173                            
-70.5617 41.77                                                  ! 8447191                            
-70.154488 41.760107                                            ! 8447241                            
-70.5934 41.7459                                                ! 8447259                            
-70.6167 41.7417                                                ! 8447270                            
-70.6243 41.735                                                 ! 8447295                            
-70.71276 41.7137                                               ! 8447368                            
-71.16666 41.70666                                              ! 8447386                            
-70.71743 41.69759                                              ! 8447416                            
-69.94764 41.68907                                              ! 8447435                            
-70.055709 41.661871                                            ! 8447495                            
-70.89813 41.59109                                              ! 8447712                            
-70.9283 41.5383                                                ! 8447842                            
-70.6717 41.5233                                                ! 8447930                            
-70.59037 41.46602                                              ! 8448157                            
-70.50592 41.38799                                              ! 8448558                            
-70.768235 41.359007                                            ! 8448725                            
-70.09138 41.28624                                              ! 8449130                            
-71.25459 41.63896                                              ! 8451552                            
-71.3267 41.505                                                 ! 8452660                            
-71.3433 41.7167                                                ! 8452944                            