created on 2020-11-06 14:04                                     ! RUNDES
 Shinacock Inlet Coarse Grid                                    ! RUNID
1                                                               ! NFOVER
1                                                               ! NABOUT
100                                                             ! NSCREEN
567                                                             ! IHOT
2                                                               ! ICS
511113                                                          ! IM
2                                                               ! NOLIBF
2                                                               ! NOLIFA
1                                                               ! NOLICA
1                                                               ! NOLICAT
0                                                               ! NWP
1                                                               ! NCOR
1                                                               ! NTIP
0                                                               ! NWS
8                                                               ! NRAMP
9.81                                                            ! gravitational acceleration
0.005                                                           ! TAU0
2.510781                                                        ! DTDP
0                                                               ! STATIM
0                                                               ! REFTIM
5                                                               ! RNDAY
2.000 0.000 0.000 0.000 2.000 2.000 1.000 0.000 2.000           ! DRAMP
0.5 0.5 0                                                       ! A00 B00 C00
0.01 0 0 0.01                                                   ! H0 ? ? VELMIN
-72.4759 40.7602                                                ! SLAM0 SFEA0
0.0025 1 10 0.333333                                            ! CF HBREAK FTHETA FGAMMA
-0.2                                                            ! smagorinsky coefficient
0                                                               ! CORI
5                                                               ! NTIF
M2
0.242334 0.000140519 0.693 1.03771 289.717
N2
0.046398 0.00013788 0.693 1.03771 4.91039
S2
0.112841 0.000145444 0.693 1 0
K1
0.141565 7.29212E-05 0.736 0.882012 351.701
O1
0.100514 6.75977E-05 0.695 0.806444 298.383
5
M2
0.000140519 1.03771 289.717
N2
0.00013788 1.03771 4.91039
S2
0.000145444 1 0
K1
7.29212E-05 0.882012 351.701
O1
6.75977E-05 0.806444 298.383
M2
5.78533357e-01 3.47958397e+02
5.78533357e-01 3.47958397e+02
5.54944611e-01 3.48477579e+02
5.54944611e-01 3.48477579e+02
5.54944611e-01 3.48477579e+02
5.54944611e-01 3.48477579e+02
5.54944611e-01 3.48477579e+02
5.54944611e-01 3.48477579e+02
5.62873724e-01 3.49226437e+02
5.62873724e-01 3.49226437e+02
5.62873724e-01 3.49226437e+02
5.62873724e-01 3.49226437e+02
5.62873724e-01 3.49226437e+02
5.62873724e-01 3.49226437e+02
5.62873724e-01 3.49226437e+02
5.62873724e-01 3.49226437e+02
5.42422071e-01 3.49581316e+02
5.42422071e-01 3.49581316e+02
5.42422071e-01 3.49581316e+02
5.42422071e-01 3.49581316e+02
5.42422071e-01 3.49581316e+02
5.42422071e-01 3.49581316e+02
5.40676870e-01 3.49809165e+02
5.40676870e-01 3.49809165e+02
5.40676870e-01 3.49809165e+02
5.22521873e-01 3.49782605e+02
5.22521873e-01 3.49782605e+02
5.22521873e-01 3.49782605e+02
5.22521873e-01 3.49782605e+02
5.22521873e-01 3.49782605e+02
5.22521873e-01 3.49782605e+02
5.22521873e-01 3.49782605e+02
5.22521873e-01 3.49782605e+02
5.22521873e-01 3.49782605e+02
5.06897510e-01 3.49744611e+02
5.06897510e-01 3.49744611e+02
5.06897510e-01 3.49744611e+02
5.06897510e-01 3.49744611e+02
5.06897510e-01 3.49744611e+02
5.12060703e-01 3.50190994e+02
5.12060703e-01 3.50190994e+02
5.12060703e-01 3.50190994e+02
5.12060703e-01 3.50190994e+02
4.99812269e-01 3.50174744e+02
4.99812269e-01 3.50174744e+02
4.99812269e-01 3.50174744e+02
4.99812269e-01 3.50174744e+02
4.99812269e-01 3.50174744e+02
4.99812269e-01 3.50174744e+02
4.99812269e-01 3.50174744e+02
4.99812269e-01 3.50174744e+02
4.99812269e-01 3.50174744e+02
4.99812269e-01 3.50174744e+02
5.04414842e-01 3.51062117e+02
5.04414842e-01 3.51062117e+02
5.04414842e-01 3.51062117e+02
4.93339224e-01 3.50809838e+02
4.93339224e-01 3.50809838e+02
4.93339224e-01 3.50809838e+02
4.93339224e-01 3.50809838e+02
4.93339224e-01 3.50809838e+02
4.93339224e-01 3.50809838e+02
4.98270997e-01 3.51915658e+02
4.98270997e-01 3.51915658e+02
4.98270997e-01 3.51915658e+02
4.98270997e-01 3.51915658e+02
4.98270997e-01 3.51915658e+02
4.98270997e-01 3.51915658e+02
4.98270997e-01 3.51915658e+02
4.98270997e-01 3.51915658e+02
4.98270997e-01 3.51915658e+02
5.01416051e-01 3.54036005e+02
5.01416051e-01 3.54036005e+02
5.01416051e-01 3.54036005e+02
5.01416051e-01 3.54036005e+02
N2
1.36713692e-01 3.31388412e+02
1.36713692e-01 3.31388412e+02
1.31119373e-01 3.32141304e+02
1.31119373e-01 3.32141304e+02
1.31119373e-01 3.32141304e+02
1.31119373e-01 3.32141304e+02
1.31119373e-01 3.32141304e+02
1.31119373e-01 3.32141304e+02
1.33393153e-01 3.32652045e+02
1.33393153e-01 3.32652045e+02
1.33393153e-01 3.32652045e+02
1.33393153e-01 3.32652045e+02
1.33393153e-01 3.32652045e+02
1.33393153e-01 3.32652045e+02
1.33393153e-01 3.32652045e+02
1.33393153e-01 3.32652045e+02
1.28746190e-01 3.33097830e+02
1.28746190e-01 3.33097830e+02
1.28746190e-01 3.33097830e+02
1.28746190e-01 3.33097830e+02
1.28746190e-01 3.33097830e+02
1.28746190e-01 3.33097830e+02
1.28330339e-01 3.32983589e+02
1.28330339e-01 3.32983589e+02
1.28330339e-01 3.32983589e+02
1.24274772e-01 3.32923849e+02
1.24274772e-01 3.32923849e+02
1.24274772e-01 3.32923849e+02
1.24274772e-01 3.32923849e+02
1.24274772e-01 3.32923849e+02
1.24274772e-01 3.32923849e+02
1.24274772e-01 3.32923849e+02
1.24274772e-01 3.32923849e+02
1.24274772e-01 3.32923849e+02
1.20846232e-01 3.32827597e+02
1.20846232e-01 3.32827597e+02
1.20846232e-01 3.32827597e+02
1.20846232e-01 3.32827597e+02
1.20846232e-01 3.32827597e+02
1.22422444e-01 3.33746757e+02
1.22422444e-01 3.33746757e+02
1.22422444e-01 3.33746757e+02
1.22422444e-01 3.33746757e+02
1.19850592e-01 3.33611259e+02
1.19850592e-01 3.33611259e+02
1.19850592e-01 3.33611259e+02
1.19850592e-01 3.33611259e+02
1.19850592e-01 3.33611259e+02
1.19850592e-01 3.33611259e+02
1.19850592e-01 3.33611259e+02
1.19850592e-01 3.33611259e+02
1.19850592e-01 3.33611259e+02
1.19850592e-01 3.33611259e+02
1.21739628e-01 3.34992247e+02
1.21739628e-01 3.34992247e+02
1.21739628e-01 3.34992247e+02
1.19174856e-01 3.34563507e+02
1.19174856e-01 3.34563507e+02
1.19174856e-01 3.34563507e+02
1.19174856e-01 3.34563507e+02
1.19174856e-01 3.34563507e+02
1.19174856e-01 3.34563507e+02
1.21140909e-01 3.36060234e+02
1.21140909e-01 3.36060234e+02
1.21140909e-01 3.36060234e+02
1.21140909e-01 3.36060234e+02
1.21140909e-01 3.36060234e+02
1.21140909e-01 3.36060234e+02
1.21140909e-01 3.36060234e+02
1.21140909e-01 3.36060234e+02
1.21140909e-01 3.36060234e+02
1.22210473e-01 3.38946279e+02
1.22210473e-01 3.38946279e+02
1.22210473e-01 3.38946279e+02
1.22210473e-01 3.38946279e+02
S2
1.19367792e-01 1.21552213e+01
1.19367792e-01 1.21552213e+01
1.14072799e-01 1.27548014e+01
1.14072799e-01 1.27548014e+01
1.14072799e-01 1.27548014e+01
1.14072799e-01 1.27548014e+01
1.14072799e-01 1.27548014e+01
1.14072799e-01 1.27548014e+01
1.15511714e-01 1.35980202e+01
1.15511714e-01 1.35980202e+01
1.15511714e-01 1.35980202e+01
1.15511714e-01 1.35980202e+01
1.15511714e-01 1.35980202e+01
1.15511714e-01 1.35980202e+01
1.15511714e-01 1.35980202e+01
1.15511714e-01 1.35980202e+01
1.10990677e-01 1.39598392e+01
1.10990677e-01 1.39598392e+01
1.10990677e-01 1.39598392e+01
1.10990677e-01 1.39598392e+01
1.10990677e-01 1.39598392e+01
1.10990677e-01 1.39598392e+01
1.10048272e-01 1.42021944e+01
1.10048272e-01 1.42021944e+01
1.10048272e-01 1.42021944e+01
1.06081338e-01 1.41116404e+01
1.06081338e-01 1.41116404e+01
1.06081338e-01 1.41116404e+01
1.06081338e-01 1.41116404e+01
1.06081338e-01 1.41116404e+01
1.06081338e-01 1.41116404e+01
1.06081338e-01 1.41116404e+01
1.06081338e-01 1.41116404e+01
1.06081338e-01 1.41116404e+01
1.02727217e-01 1.39951850e+01
1.02727217e-01 1.39951850e+01
1.02727217e-01 1.39951850e+01
1.02727217e-01 1.39951850e+01
1.02727217e-01 1.39951850e+01
1.04581543e-01 1.45013554e+01
1.04581543e-01 1.45013554e+01
1.04581543e-01 1.45013554e+01
1.04581543e-01 1.45013554e+01
1.02017900e-01 1.43598518e+01
1.02017900e-01 1.43598518e+01
1.02017900e-01 1.43598518e+01
1.02017900e-01 1.43598518e+01
1.02017900e-01 1.43598518e+01
1.02017900e-01 1.43598518e+01
1.02017900e-01 1.43598518e+01
1.02017900e-01 1.43598518e+01
1.02017900e-01 1.43598518e+01
1.02017900e-01 1.43598518e+01
1.03863396e-01 1.52766425e+01
1.03863396e-01 1.52766425e+01
1.03863396e-01 1.52766425e+01
1.01540087e-01 1.48313210e+01
1.01540087e-01 1.48313210e+01
1.01540087e-01 1.48313210e+01
1.01540087e-01 1.48313210e+01
1.01540087e-01 1.48313210e+01
1.01540087e-01 1.48313210e+01
1.03514842e-01 1.58933859e+01
1.03514842e-01 1.58933859e+01
1.03514842e-01 1.58933859e+01
1.03514842e-01 1.58933859e+01
1.03514842e-01 1.58933859e+01
1.03514842e-01 1.58933859e+01
1.03514842e-01 1.58933859e+01
1.03514842e-01 1.58933859e+01
1.03514842e-01 1.58933859e+01
1.05281441e-01 1.81233164e+01
1.05281441e-01 1.81233164e+01
1.05281441e-01 1.81233164e+01
1.05281441e-01 1.81233164e+01
K1
7.39939771e-02 1.80329762e+02
7.39939771e-02 1.80329762e+02
7.32503279e-02 1.80178255e+02
7.32503279e-02 1.80178255e+02
7.32503279e-02 1.80178255e+02
7.32503279e-02 1.80178255e+02
7.32503279e-02 1.80178255e+02
7.32503279e-02 1.80178255e+02
7.51678726e-02 1.79360667e+02
7.51678726e-02 1.79360667e+02
7.51678726e-02 1.79360667e+02
7.51678726e-02 1.79360667e+02
7.51678726e-02 1.79360667e+02
7.51678726e-02 1.79360667e+02
7.51678726e-02 1.79360667e+02
7.51678726e-02 1.79360667e+02
7.49044166e-02 1.79085841e+02
7.49044166e-02 1.79085841e+02
7.49044166e-02 1.79085841e+02
7.49044166e-02 1.79085841e+02
7.49044166e-02 1.79085841e+02
7.49044166e-02 1.79085841e+02
7.69885819e-02 1.77912951e+02
7.69885819e-02 1.77912951e+02
7.69885819e-02 1.77912951e+02
7.71473510e-02 1.77374038e+02
7.71473510e-02 1.77374038e+02
7.71473510e-02 1.77374038e+02
7.71473510e-02 1.77374038e+02
7.71473510e-02 1.77374038e+02
7.71473510e-02 1.77374038e+02
7.71473510e-02 1.77374038e+02
7.71473510e-02 1.77374038e+02
7.71473510e-02 1.77374038e+02
7.74606708e-02 1.76849298e+02
7.74606708e-02 1.76849298e+02
7.74606708e-02 1.76849298e+02
7.74606708e-02 1.76849298e+02
7.74606708e-02 1.76849298e+02
7.50229614e-02 1.78470746e+02
7.50229614e-02 1.78470746e+02
7.50229614e-02 1.78470746e+02
7.50229614e-02 1.78470746e+02
7.53848010e-02 1.78047103e+02
7.53848010e-02 1.78047103e+02
7.53848010e-02 1.78047103e+02
7.53848010e-02 1.78047103e+02
7.53848010e-02 1.78047103e+02
7.53848010e-02 1.78047103e+02
7.53848010e-02 1.78047103e+02
7.53848010e-02 1.78047103e+02
7.53848010e-02 1.78047103e+02
7.53848010e-02 1.78047103e+02
7.29761472e-02 1.80208215e+02
7.29761472e-02 1.80208215e+02
7.29761472e-02 1.80208215e+02
7.34048995e-02 1.79859004e+02
7.34048995e-02 1.79859004e+02
7.34048995e-02 1.79859004e+02
7.34048995e-02 1.79859004e+02
7.34048995e-02 1.79859004e+02
7.34048995e-02 1.79859004e+02
7.11010880e-02 1.82650286e+02
7.11010880e-02 1.82650286e+02
7.11010880e-02 1.82650286e+02
7.11010880e-02 1.82650286e+02
7.11010880e-02 1.82650286e+02
7.11010880e-02 1.82650286e+02
7.11010880e-02 1.82650286e+02
7.11010880e-02 1.82650286e+02
7.11010880e-02 1.82650286e+02
6.85564457e-02 1.86889737e+02
6.85564457e-02 1.86889737e+02
6.85564457e-02 1.86889737e+02
6.85564457e-02 1.86889737e+02
O1
6.22558140e-02 1.86857718e+02
6.22558140e-02 1.86857718e+02
6.18710528e-02 1.86668696e+02
6.18710528e-02 1.86668696e+02
6.18710528e-02 1.86668696e+02
6.18710528e-02 1.86668696e+02
6.18710528e-02 1.86668696e+02
6.18710528e-02 1.86668696e+02
6.26146132e-02 1.85878348e+02
6.26146132e-02 1.85878348e+02
6.26146132e-02 1.85878348e+02
6.26146132e-02 1.85878348e+02
6.26146132e-02 1.85878348e+02
6.26146132e-02 1.85878348e+02
6.26146132e-02 1.85878348e+02
6.26146132e-02 1.85878348e+02
6.24737470e-02 1.85543433e+02
6.24737470e-02 1.85543433e+02
6.24737470e-02 1.85543433e+02
6.24737470e-02 1.85543433e+02
6.24737470e-02 1.85543433e+02
6.24737470e-02 1.85543433e+02
6.32852223e-02 1.84415257e+02
6.32852223e-02 1.84415257e+02
6.32852223e-02 1.84415257e+02
6.33595068e-02 1.83834692e+02
6.33595068e-02 1.83834692e+02
6.33595068e-02 1.83834692e+02
6.33595068e-02 1.83834692e+02
6.33595068e-02 1.83834692e+02
6.33595068e-02 1.83834692e+02
6.33595068e-02 1.83834692e+02
6.33595068e-02 1.83834692e+02
6.33595068e-02 1.83834692e+02
6.35358829e-02 1.83247698e+02
6.35358829e-02 1.83247698e+02
6.35358829e-02 1.83247698e+02
6.35358829e-02 1.83247698e+02
6.35358829e-02 1.83247698e+02
6.26234869e-02 1.84714889e+02
6.26234869e-02 1.84714889e+02
6.26234869e-02 1.84714889e+02
6.26234869e-02 1.84714889e+02
6.28546884e-02 1.84145004e+02
6.28546884e-02 1.84145004e+02
6.28546884e-02 1.84145004e+02
6.28546884e-02 1.84145004e+02
6.28546884e-02 1.84145004e+02
6.28546884e-02 1.84145004e+02
6.28546884e-02 1.84145004e+02
6.28546884e-02 1.84145004e+02
6.28546884e-02 1.84145004e+02
6.28546884e-02 1.84145004e+02
6.22294896e-02 1.85839263e+02
6.22294896e-02 1.85839263e+02
6.22294896e-02 1.85839263e+02
6.24423261e-02 1.85279118e+02
6.24423261e-02 1.85279118e+02
6.24423261e-02 1.85279118e+02
6.24423261e-02 1.85279118e+02
6.24423261e-02 1.85279118e+02
6.24423261e-02 1.85279118e+02
6.20476813e-02 1.87205204e+02
6.20476813e-02 1.87205204e+02
6.20476813e-02 1.87205204e+02
6.20476813e-02 1.87205204e+02
6.20476813e-02 1.87205204e+02
6.20476813e-02 1.87205204e+02
6.20476813e-02 1.87205204e+02
6.20476813e-02 1.87205204e+02
6.20476813e-02 1.87205204e+02
6.17158305e-02 1.89961876e+02
6.17158305e-02 1.89961876e+02
6.17158305e-02 1.89961876e+02
6.17158305e-02 1.89961876e+02
110                                                             ! ANGINN
0 0 0 0                                                         ! NOUTE TOUTSE TOUTFE NSPOOLE
0                                                               ! NSTAE
0 0 0 0                                                         ! NOUTV TOUTSV TOUTFV NSPOOLV0                                                               ! NSTAV
0 0.000000 0.000000 0                                           ! NOUTGE TOUTSGE TOUTFGE NSPOOLGE
0 0.000000 0.000000 0                                           ! NOUTGV TOUTSGV TOUTFGV NSPOOLGV
0                                                               ! NFREQ
0 0 0 0                                                         ! THAS THAF NHAINC FMV
0 0 0 0                                                         ! NHASE NHASV NHAGE NHAGV
0 0                                                             ! NHSTAR NHSINC
1 0 1E-08 25                                                    ! ITITER ISLDIA CONVCR ITMAX
                                                                ! NCPROJ
                                                                ! NCINST
                                                                ! NCSOUR
                                                                ! NCHIST
                                                                ! NCREF
                                                                ! NCCOM
                                                                ! NCHOST
                                                                ! NCONV
                                                                ! NCCONT
2015-12-14 00:00                                                ! Forcing start date / NCDATE