created on 2020-11-17 08:16                                     ! RUNDES
Shinacock Inlet Coarse Grid                                     ! RUNID
1                                                               ! NFOVER
1                                                               ! NABOUT
100                                                             ! NSCREEN
0                                                               ! IHOT
2                                                               ! ICS
511113                                                          ! IM
2                                                               ! NOLIBF
2                                                               ! NOLIFA
1                                                               ! NOLICA
1                                                               ! NOLICAT
0                                                               ! NWP
1                                                               ! NCOR
1                                                               ! NTIP
0                                                               ! NWS
1                                                               ! NRAMP
9.81                                                            ! gravitational acceleration
0.005                                                           ! TAU0
2.510781                                                        ! DTDP
0                                                               ! STATIM
0                                                               ! REFTIM
2                                                               ! RNDAY
2                                                               ! DRAMP
0.5 0.5 0                                                       ! A00 B00 C00
0.01 0 0 0.01                                                   ! H0 ? ? VELMIN
-72.4759 40.7602                                                ! SLAM0 SFEA0
0.0025 1 10 0.333333                                            ! CF HBREAK FTHETA FGAMMA
-0.2                                                            ! smagorinsky coefficient
0                                                               ! CORI
0                                                               ! NTIF
0
110                                                             ! ANGINN
0 0 0 0                                                         ! NOUTE TOUTSE TOUTFE NSPOOLE
0                                                               ! NSTAE
0 0 0 0                                                         ! NOUTV TOUTSV TOUTFV NSPOOLV
0                                                               ! NSTAV
0 0.000000 0.000000 0                                           ! NOUTGE TOUTSGE TOUTFGE NSPOOLGE
0 0.000000 0.000000 0                                           ! NOUTGV TOUTSGV TOUTFGV NSPOOLGV
0                                                               ! NFREQ
0 0 0 0                                                         ! THAS THAF NHAINC FMV
0 0 0 0                                                         ! NHASE NHASV NHAGE NHAGV
5 68823                                                         ! NHSTAR NHSINC
1 0 1E-08 25                                                    ! ITITER ISLDIA CONVCR ITMAX
                                                                ! NCPROJ
                                                                ! NCINST
                                                                ! NCSOUR
                                                                ! NCHIST
                                                                ! NCREF
                                                                ! NCCOM
                                                                ! NCHOST
                                                                ! NCONV
                                                                ! NCCONT
2015-12-14 00:00                                                ! Forcing start date / NCDATE
