created on 2023-02-23 16:47                                     ! RUNDES                              - 32 CHARACTER ALPHANUMERIC RUN DESCRIPTION
Shinacock Inlet Coarse Grid                                     ! RUNID                               - 24 CHARACTER ALPANUMERIC RUN IDENTIFICATION
1                                                               ! NFOVER                              - NONFATAL ERROR OVERRIDE OPTION
1                                                               ! NABOUT                              - ABREVIATED OUTPUT OPTION PARAMETER
100                                                             ! NSCREEN                             - UNIT 6 OUTPUT OPTION PARAMETER
567                                                             ! IHOT                                - HOT START PARAMETER
2                                                               ! ICS                                 - COORDINATE SYSTEM SELECTION PARAMETER
511113                                                          ! IM                                  - MODEL SELECTION PARAMETER
2                                                               ! NOLIBF                              - BOTTOM FRICTION TERM SELECTION PARAM; before NWP==1, '2' was used
2                                                               ! NOLIFA                              - FINITE AMPLITUDE TERM SELECTION PARAMETER
1                                                               ! NOLICA                              - SPATIAL DERIVATIVE CONVECTIVE SELECTION PARAMETER
1                                                               ! NOLICAT                             - TIME DERIVATIVE CONVECTIVE TERM SELECTION PARAMETER
0                                                               ! NWP                                 - VARIABLE BOTTOM FRICTION AND LATERAL VISCOSITY OPTION PARAMETER; default 0
1                                                               ! NCOR                                - VARIABLE CORIOLIS IN SPACE OPTION PARAMETER
1                                                               ! NTIP                                - TIDAL POTENTIAL OPTION PARAMETER
517                                                             ! NWS                                 - WIND STRESS AND BAROMETRIC PRESSURE OPTION PARAMETER
8                                                               ! NRAMP                               - RAMP FUNCTION OPTION
9.81                                                            ! G                                   - ACCELERATION DUE TO GRAVITY - DETERMINES UNITS
0.005                                                           ! TAU0                                - WEIGHTING FACTOR IN GWCE; original, 0.005
2.510781                                                        ! DTDP                                - TIME STEP (IN SECONDS)
0                                                               ! STATIM                              - STARTING TIME (IN DAYS)
0                                                               ! REFTIM                              - REFERENCE TIME (IN DAYS)
3600 3600                                                       ! WTIMINC RSTIMINC                    - meteorological data time increment, wave forcing increment
5                                                               ! RNDAY                               - TOTAL LENGTH OF SIMULATION (IN DAYS)
2.000 0.000 0.000 0.000 2.000 2.000 1.000 0.000 2.000           ! DRAMP                               - DURATION OF RAMP FUNCTION (IN DAYS)
0.5 0.5 0                                                       ! A00 B00 C00                         - TIME WEIGHTING FACTORS FOR THE GWCE EQUATION
0.01 0 0 0.01                                                   ! H0 NODEDRYMIN NODEWETRMP VELMIN    
-72.47588186015 40.7602221247                                   ! SLAM0 SFEA0                         - CENTER OF CPP PROJECTION (NOT USED IF ICS=1, NTIP=0, NCOR=0)
0.0025 1 10 0.333333                                            ! CF HBREAK FTHETA FGAMMA            
-0.2                                                            ! smagorinsky coefficient             - LATERAL EDDY VISCOSITY COEFFICIENT; IGNORED IF NWP =1
0                                                               ! CORI                                - CORIOLIS PARAMETER - IGNORED IF NCOR = 1
0                                                               ! NTIF                                - NUMBER OF TIDAL POTENTIAL CONSTITUENTS BEING FORCED starting 2008082300
0
110                                                             ! ANGINN                              - INNER ANGLE THRESHOLD
0 0 0 0                                                         ! NOUTE TOUTSE TOUTFE NSPOOLE         - ELEV STATION OUTPUT INFO (UNIT 61)
0                                                               ! NSTAE                               - TOTAL NUMBER OF ELEVATION RECORDING STATIONS
0 0 0 0                                                         ! NOUTV TOUTSV TOUTFV NSPOOLV         - VELOCITY STATION OUTPUT INFO (UNIT 62)
0                                                               ! NSTAV                               - TOTAL NUMBER OF VELOCITY RECORDING STATIONS
0 0 0 0                                                         ! NOUTM TOUTSM TOUTFM NSPOOLM         - METEOROLOGICAL STATION OUTPUT INFO (UNITS 71/72)
0                                                               ! NSTAM                               - TOTAL NUMBER OF METEOROLOGICAL RECORDING STATIONS
0 0.000000 0.000000 0                                           ! NOUTGE TOUTSGE TOUTFGE NSPOOLGE     - GLOBAL ELEVATION OUTPUT INFO (UNIT 63)
0 0.000000 0.000000 0                                           ! NOUTGV TOUTSGV TOUTFGV NSPOOLGV     - GLOBAL VELOCITY OUTPUT INFO (UNIT 64)
0 0.000000 0.000000 0                                           ! NOUTGM TOUTSGM TOUTFGM NSPOOLGM     - GLOBAL METEOROLOGICAL OUTPUT INFO
0                                                               ! NFREQ                              
0 0 0 0                                                         ! THAS THAF NHAINC FMV                - HARMONIC ANALYSIS PARAMETERS
0 0 0 0                                                         ! NHASE NHASV NHAGE NHAGV             - CONTROL HARMONIC ANALYSIS AND OUTPUT TO UNITS 51,52,53,54
0 0                                                             ! NHSTAR NHSINC                       - HOT START FILE GENERATION PARAMETERS
1 0 1E-08 25                                                    ! ITITER ISLDIA CONVCR ITMAX          - ALGEBRAIC SOLUTION PARAMETERS
                                                                ! NCPROJ                              - PROJECT TITLE
                                                                ! NCINST                              - PROJECT INSTITUTION
                                                                ! NCSOUR                              - PROJECT SOURCE
                                                                ! NCHIST                              - PROJECT HISTORY
                                                                ! NCREF                               - PROJECT REFERENCES
                                                                ! NCCOM                               - PROJECT COMMENTS
                                                                ! NCHOST                              - PROJECT HOST
                                                                ! NCONV                               - CONVENTIONS
                                                                ! NCCONT                              - CONTACT INFORMATION
2015-12-14 00:00                                                ! NCDATE                              - forcing start date
&SWANOutputControl SWAN_OutputHS=False, SWAN_OutputDIR=False, SWAN_OutputTM01=False, SWAN_OutputTPS=False, SWAN_OutputWIND=False, SWAN_OutputTM02=False, SWAN_OutputTMM10=False \
&metControl WindDragLimit=0.0025, DragLawString=default, outputWindDrag=F, invertedBarometerOnElevationBoundary=T \
