created on 2022-01-20 09:55                                     ! RUNDES                              - 32 CHARACTER ALPHANUMERIC RUN DESCRIPTION
Shinacock Inlet Coarse Grid                                     ! RUNID                               - 24 CHARACTER ALPANUMERIC RUN IDENTIFICATION
1                                                               ! NFOVER                              - NONFATAL ERROR OVERRIDE OPTION
1                                                               ! NABOUT                              - ABREVIATED OUTPUT OPTION PARAMETER
100                                                             ! NSCREEN                             - UNIT 6 OUTPUT OPTION PARAMETER
0                                                               ! IHOT                                - HOT START PARAMETER
2                                                               ! ICS                                 - COORDINATE SYSTEM SELECTION PARAMETER
511113                                                          ! IM                                  - MODEL SELECTION PARAMETER
1                                                               ! NOLIBF                              - BOTTOM FRICTION TERM SELECTION PARAM; before NWP==1, '2' was used
2                                                               ! NOLIFA                              - FINITE AMPLITUDE TERM SELECTION PARAMETER
1                                                               ! NOLICA                              - SPATIAL DERIVATIVE CONVECTIVE SELECTION PARAMETER
1                                                               ! NOLICAT                             - TIME DERIVATIVE CONVECTIVE TERM SELECTION PARAMETER
2                                                               ! NWP                                 - VARIABLE BOTTOM FRICTION AND LATERAL VISCOSITY OPTION PARAMETER; default 0
primitive_weighting_in_continuity_equation
mannings_n_at_sea_floor
1                                                               ! NCOR                                - VARIABLE CORIOLIS IN SPACE OPTION PARAMETER
1                                                               ! NTIP                                - TIDAL POTENTIAL OPTION PARAMETER
0                                                               ! NWS                                 - WIND STRESS AND BAROMETRIC PRESSURE OPTION PARAMETER
1                                                               ! NRAMP                               - RAMP FUNCTION OPTION
9.81                                                            ! G                                   - ACCELERATION DUE TO GRAVITY - DETERMINES UNITS
-3                                                              ! TAU0                                - WEIGHTING FACTOR IN GWCE; original, 0.005
4.000000                                                        ! DTDP                                - TIME STEP (IN SECONDS)
0                                                               ! STATIM                              - STARTING TIME (IN DAYS)
0                                                               ! REFTIM                              - REFERENCE TIME (IN DAYS)
2                                                               ! RNDAY                               - TOTAL LENGTH OF SIMULATION (IN DAYS)
2                                                               ! DRAMP                               - DURATION OF RAMP FUNCTION (IN DAYS)
0.5 0.5 0                                                       ! A00 B00 C00                         - TIME WEIGHTING FACTORS FOR THE GWCE EQUATION
0.01 0 0 0.01                                                   ! H0 NODEDRYMIN NODEWETRMP VELMIN    
-72.47588186015 40.7602221247                                   ! SLAM0 SFEA0                         - CENTER OF CPP PROJECTION (NOT USED IF ICS=1, NTIP=0, NCOR=0)
0.0025                                                          ! FFACTOR                            
-0.2                                                            ! smagorinsky coefficient             - LATERAL EDDY VISCOSITY COEFFICIENT; IGNORED IF NWP =1
0                                                               ! CORI                                - CORIOLIS PARAMETER - IGNORED IF NCOR = 1
5                                                               ! NTIF                                - NUMBER OF TIDAL POTENTIAL CONSTITUENTS BEING FORCED starting 2008082300
M2
0.242334 0.000140519 0.693 1.03771 240.952
N2
0.046398 0.00013788 0.693 1.03771 289.904
S2
0.112841 0.000145444 0.693 1 0
K1
0.141565 7.29212E-05 0.736 0.882022 353.662
O1
0.100514 6.75977E-05 0.695 0.80646 247.662
5
M2
0.000140519 1.03771 240.952
N2
0.00013788 1.03771 289.904
S2
0.000145444 1 0
K1
7.29212E-05 0.882022 353.662
O1
6.75977E-05 0.80646 247.662
M2
4.83605669e-01 2.20112655e+02
4.17823412e-01 3.11130902e+02
4.44913133e-01 3.18628023e+02
4.71558150e-01 3.26026894e+02
4.97259593e-01 3.33211178e+02
5.23257355e-01 3.40463284e+02
5.41888786e-01 3.45769657e+02
5.41058162e-01 3.45882983e+02
5.40140665e-01 3.46003087e+02
5.39145517e-01 3.46122085e+02
5.38101205e-01 3.46240828e+02
5.36936701e-01 3.46358483e+02
5.35707863e-01 3.46475392e+02
5.34391227e-01 3.46590551e+02
5.32937780e-01 3.46703952e+02
5.31317377e-01 3.46830938e+02
5.29593815e-01 3.46953791e+02
5.27851372e-01 3.47069295e+02
5.26129284e-01 3.47178660e+02
5.24279561e-01 3.47276988e+02
5.22441536e-01 3.47376094e+02
5.20654229e-01 3.47447146e+02
5.18824607e-01 3.47514648e+02
5.16996612e-01 3.47582439e+02
5.15143403e-01 3.47646175e+02
5.13320350e-01 3.47710045e+02
5.11503812e-01 3.47775222e+02
5.09656534e-01 3.47832369e+02
5.07793737e-01 3.47884317e+02
5.05934264e-01 3.47937787e+02
5.04004778e-01 3.47980897e+02
5.02440007e-01 3.48073221e+02
5.00820043e-01 3.48141997e+02
4.99224635e-01 3.48203460e+02
4.97614550e-01 3.48268523e+02
4.96009600e-01 3.48332033e+02
4.94446036e-01 3.48387574e+02
4.93031798e-01 3.48435480e+02
4.91640933e-01 3.48498034e+02
4.90291319e-01 3.48553996e+02
4.88990070e-01 3.48603394e+02
4.87719720e-01 3.48671848e+02
4.86623674e-01 3.48760987e+02
4.85567203e-01 3.48846606e+02
4.84569486e-01 3.48910930e+02
4.83606903e-01 3.48957861e+02
4.82696378e-01 3.49026466e+02
4.81890274e-01 3.49099203e+02
4.81127737e-01 3.49176891e+02
4.80309641e-01 3.49273904e+02
4.79438438e-01 3.49372746e+02
4.78735601e-01 3.49465000e+02
4.78048257e-01 3.49556568e+02
4.77403889e-01 3.49635479e+02
4.76809016e-01 3.49711134e+02
4.76503022e-01 3.49824655e+02
4.76254058e-01 3.49961192e+02
4.75733866e-01 3.50103255e+02
4.75240628e-01 3.50243140e+02
4.74706684e-01 3.50386207e+02
4.74229320e-01 3.50514772e+02
4.73687727e-01 3.50625177e+02
4.73194913e-01 3.50726085e+02
4.72617392e-01 3.50819435e+02
4.71696834e-01 3.50944527e+02
4.70988319e-01 3.51074724e+02
4.70436669e-01 3.51210448e+02
4.69894471e-01 3.51342847e+02
4.69382513e-01 3.51464616e+02
4.68892169e-01 3.51478119e+02
4.71723731e-01 3.25083086e+02
4.74559801e-01 2.98753105e+02
4.77395433e-01 2.72630955e+02
4.80228035e-01 2.46897948e+02
4.83058572e-01 2.21227733e+02
N2
1.21859723e-01 2.04783594e+02
1.00892997e-01 2.72404213e+02
1.07287245e-01 2.84727230e+02
1.13581222e-01 2.96886645e+02
1.19661285e-01 3.08689392e+02
1.25808608e-01 3.20604821e+02
1.30222286e-01 3.29305020e+02
1.30062414e-01 3.29392985e+02
1.29902024e-01 3.29492607e+02
1.29729908e-01 3.29593182e+02
1.29549964e-01 3.29693394e+02
1.29347679e-01 3.29787752e+02
1.29116240e-01 3.29854733e+02
1.28871004e-01 3.29919995e+02
1.28603042e-01 3.29983329e+02
1.28282955e-01 3.30057082e+02
1.27949199e-01 3.30127218e+02
1.27627552e-01 3.30197158e+02
1.27324496e-01 3.30268519e+02
1.27009664e-01 3.30332223e+02
1.26695723e-01 3.30396343e+02
1.26379101e-01 3.30431342e+02
1.26058890e-01 3.30464027e+02
1.25738702e-01 3.30496893e+02
1.25415343e-01 3.30526968e+02
1.25091019e-01 3.30556728e+02
1.24766708e-01 3.30587304e+02
1.24443721e-01 3.30612912e+02
1.24122257e-01 3.30635322e+02
1.23800163e-01 3.30658663e+02
1.23481453e-01 3.30681322e+02
1.23195147e-01 3.30731206e+02
1.22897107e-01 3.30768776e+02
1.22615181e-01 3.30803137e+02
1.22325050e-01 3.30839092e+02
1.22038333e-01 3.30874365e+02
1.21770718e-01 3.30906063e+02
1.21556522e-01 3.30933426e+02
1.21351791e-01 3.30966359e+02
1.21162189e-01 3.30996317e+02
1.20988102e-01 3.31023278e+02
1.20812688e-01 3.31061450e+02
1.20670448e-01 3.31113723e+02
1.20538884e-01 3.31164477e+02
1.20424219e-01 3.31202546e+02
1.20319799e-01 3.31229990e+02
1.20240079e-01 3.31271946e+02
1.20190881e-01 3.31318141e+02
1.20139663e-01 3.31367360e+02
1.20049561e-01 3.31426394e+02
1.19949523e-01 3.31485964e+02
1.19880264e-01 3.31543256e+02
1.19813764e-01 3.31600279e+02
1.19764246e-01 3.31651398e+02
1.19724204e-01 3.31701110e+02
1.19701320e-01 3.31774240e+02
1.19673199e-01 3.31863387e+02
1.19607754e-01 3.31965912e+02
1.19546909e-01 3.32067477e+02
1.19479093e-01 3.32170402e+02
1.19418470e-01 3.32263542e+02
1.19341100e-01 3.32340698e+02
1.19270699e-01 3.32411686e+02
1.19181954e-01 3.32483134e+02
1.19035096e-01 3.32583074e+02
1.18915579e-01 3.32689987e+02
1.18816298e-01 3.32803206e+02
1.18718439e-01 3.32914152e+02
1.18625138e-01 3.33017828e+02
1.18536055e-01 3.33016653e+02
1.19185342e-01 3.07237919e+02
1.19834735e-01 2.81523922e+02
1.20482261e-01 2.56015198e+02
1.21125964e-01 2.30890590e+02
1.21768816e-01 2.05827798e+02
S2
1.17248923e-01 2.27815587e+01
9.55332752e-02 5.27716328e+01
1.01727604e-01 4.33217911e+01
1.07823677e-01 3.39973551e+01
1.13710426e-01 2.49463309e+01
1.19662971e-01 1.58089260e+01
1.23912118e-01 9.17446790e+00
1.23647787e-01 9.27630474e+00
1.23377572e-01 9.37879024e+00
1.23097098e-01 9.47795567e+00
1.22809805e-01 9.57497975e+00
1.22506378e-01 9.66623485e+00
1.22194504e-01 9.75421403e+00
1.21871938e-01 9.83688396e+00
1.21529555e-01 9.91153716e+00
1.21102358e-01 9.97672752e+00
1.20669166e-01 1.00350360e+01
1.20252299e-01 1.00914798e+01
1.19855254e-01 1.01488766e+01
1.19462097e-01 1.01933260e+01
1.19068068e-01 1.02386967e+01
1.18655181e-01 1.02555832e+01
1.18244479e-01 1.02683416e+01
1.17833345e-01 1.02813908e+01
1.17430964e-01 1.02889356e+01
1.17038957e-01 1.02944258e+01
1.16644840e-01 1.03012256e+01
1.16264937e-01 1.03002344e+01
1.15894833e-01 1.02943174e+01
1.15521698e-01 1.02898086e+01
1.15173123e-01 1.02837639e+01
1.14836151e-01 1.02921406e+01
1.14507810e-01 1.02901135e+01
1.14213032e-01 1.02814293e+01
1.13901707e-01 1.02759018e+01
1.13597511e-01 1.02689565e+01
1.13330019e-01 1.02554383e+01
1.13124833e-01 1.02348141e+01
1.12890927e-01 1.02223416e+01
1.12685877e-01 1.02051131e+01
1.12509280e-01 1.01835672e+01
1.12324279e-01 1.01716999e+01
1.12187941e-01 1.01684919e+01
1.12070028e-01 1.01631718e+01
1.11987471e-01 1.01479220e+01
1.11927982e-01 1.01248269e+01
1.11904783e-01 1.01133915e+01
1.11929251e-01 1.01043088e+01
1.11945036e-01 1.00954346e+01
1.11887822e-01 1.00911095e+01
1.11816122e-01 1.00879427e+01
1.11788446e-01 1.00813576e+01
1.11764629e-01 1.00744836e+01
1.11766266e-01 1.00642293e+01
1.11781135e-01 1.00528794e+01
1.11791161e-01 1.00581951e+01
1.11790005e-01 1.00762465e+01
1.11790754e-01 1.01096051e+01
1.11798658e-01 1.01425409e+01
1.11795609e-01 1.01760881e+01
1.11808848e-01 1.02021564e+01
1.11807915e-01 1.02137644e+01
1.11818460e-01 1.02215122e+01
1.11806305e-01 1.02296711e+01
1.11710534e-01 1.02555163e+01
1.11638154e-01 1.02980779e+01
1.11581903e-01 1.03542153e+01
1.11528281e-01 1.04086689e+01
1.11483058e-01 1.04577416e+01
1.11444752e-01 1.05150747e+01
1.12577556e-01 1.30068084e+01
1.13710644e-01 1.54899114e+01
1.14840665e-01 1.79486568e+01
1.15964353e-01 2.03622746e+01
1.17086597e-01 2.27689523e+01
K1
7.24141814e-02 1.79513779e+02
6.39327411e-02 1.75237072e+02
6.80804771e-02 1.74586196e+02
7.21663730e-02 1.73945369e+02
7.61195168e-02 1.73326023e+02
8.01144590e-02 1.72699920e+02
8.30231345e-02 1.72262683e+02
8.30786711e-02 1.72363452e+02
8.31354862e-02 1.72475802e+02
8.31836041e-02 1.72587953e+02
8.32263197e-02 1.72700026e+02
8.32552382e-02 1.72811483e+02
8.32765640e-02 1.72922460e+02
8.32866011e-02 1.73032113e+02
8.32810817e-02 1.73140095e+02
8.32933147e-02 1.73250202e+02
8.32879997e-02 1.73357856e+02
8.32858762e-02 1.73463989e+02
8.32946813e-02 1.73569651e+02
8.32756804e-02 1.73668381e+02
8.32592496e-02 1.73767483e+02
8.32351393e-02 1.73837599e+02
8.32015380e-02 1.73905601e+02
8.31685619e-02 1.73973794e+02
8.31277783e-02 1.74038202e+02
8.30921509e-02 1.74099977e+02
8.30592678e-02 1.74162640e+02
8.30102624e-02 1.74219772e+02
8.29511634e-02 1.74273284e+02
8.28949218e-02 1.74327866e+02
8.28158288e-02 1.74385489e+02
8.27261342e-02 1.74433325e+02
8.26456486e-02 1.74473857e+02
8.25392054e-02 1.74508481e+02
8.24449358e-02 1.74545986e+02
8.23451334e-02 1.74582235e+02
8.22204666e-02 1.74612206e+02
8.20742280e-02 1.74637093e+02
8.19630908e-02 1.74674228e+02
8.18344284e-02 1.74706260e+02
8.16903307e-02 1.74733294e+02
8.15398375e-02 1.74771164e+02
8.13442058e-02 1.74817994e+02
8.11395560e-02 1.74862041e+02
8.09357165e-02 1.74899610e+02
8.07369587e-02 1.74932656e+02
8.05119061e-02 1.74996574e+02
8.02613535e-02 1.75068819e+02
8.00128720e-02 1.75121092e+02
7.97909401e-02 1.75139584e+02
7.95747243e-02 1.75164391e+02
7.93439365e-02 1.75170078e+02
7.91121669e-02 1.75174096e+02
7.88887582e-02 1.75191473e+02
7.86638210e-02 1.75205223e+02
7.84472807e-02 1.75178819e+02
7.82346483e-02 1.75138858e+02
7.80082045e-02 1.75111911e+02
7.77808601e-02 1.75081574e+02
7.75551373e-02 1.75056457e+02
7.73264079e-02 1.75018894e+02
7.70973855e-02 1.74976996e+02
7.68697793e-02 1.74928082e+02
7.66451177e-02 1.74873888e+02
7.64164726e-02 1.74842482e+02
7.61619440e-02 1.74800925e+02
7.58879329e-02 1.74753142e+02
7.56158400e-02 1.74703705e+02
7.53499079e-02 1.74649003e+02
7.50846140e-02 1.74597204e+02
7.45195817e-02 1.75608421e+02
7.39585620e-02 1.76614997e+02
7.34069773e-02 1.77609524e+02
7.28725542e-02 1.78581902e+02
7.23405409e-02 1.79551002e+02
O1
4.78577634e-02 1.95367552e+02
3.79374677e-02 1.78529759e+02
4.03967701e-02 1.78123913e+02
4.28200109e-02 1.77731749e+02
4.51656741e-02 1.77366887e+02
4.75357750e-02 1.76993574e+02
4.92892606e-02 1.76733821e+02
4.94857457e-02 1.76763816e+02
4.97030270e-02 1.76805761e+02
4.99134845e-02 1.76855947e+02
5.01195344e-02 1.76912166e+02
5.03136860e-02 1.76983401e+02
5.05010736e-02 1.77062770e+02
5.06774669e-02 1.77153661e+02
5.08389700e-02 1.77262667e+02
5.10183622e-02 1.77399640e+02
5.11800077e-02 1.77549886e+02
5.13382104e-02 1.77692540e+02
5.15003881e-02 1.77821462e+02
5.16291295e-02 1.77966874e+02
5.17613165e-02 1.78110203e+02
5.19046569e-02 1.78206150e+02
5.20360673e-02 1.78308300e+02
5.21683835e-02 1.78410096e+02
5.22815622e-02 1.78518561e+02
5.23826393e-02 1.78627645e+02
5.24878540e-02 1.78735186e+02
5.25680890e-02 1.78851412e+02
5.26323532e-02 1.78972884e+02
5.27012339e-02 1.79092925e+02
5.27505285e-02 1.79230215e+02
5.28028454e-02 1.79384889e+02
5.28631887e-02 1.79513618e+02
5.28848241e-02 1.79660037e+02
5.29249489e-02 1.79798298e+02
5.29568338e-02 1.79940333e+02
5.29497414e-02 1.80098535e+02
5.28891340e-02 1.80272718e+02
5.28637981e-02 1.80430493e+02
5.28101623e-02 1.80598723e+02
5.27304792e-02 1.80775497e+02
5.26649529e-02 1.80970544e+02
5.25686829e-02 1.81217398e+02
5.24573306e-02 1.81469320e+02
5.23370970e-02 1.81707443e+02
5.22160229e-02 1.81930710e+02
5.20876373e-02 1.82210064e+02
5.19304783e-02 1.82521320e+02
5.17643380e-02 1.82829153e+02
5.16211763e-02 1.83118233e+02
5.14917882e-02 1.83405102e+02
5.13228030e-02 1.83695281e+02
5.11505859e-02 1.83985389e+02
5.09865971e-02 1.84278005e+02
5.08145092e-02 1.84569938e+02
5.06484169e-02 1.84814595e+02
5.04966019e-02 1.85049198e+02
5.03564517e-02 1.85350502e+02
5.02105368e-02 1.85650927e+02
5.00735975e-02 1.85952373e+02
4.99130047e-02 1.86251624e+02
4.97392538e-02 1.86551934e+02
4.95538992e-02 1.86846418e+02
4.93725542e-02 1.87149130e+02
4.92465548e-02 1.87492167e+02
4.90871799e-02 1.87851896e+02
4.89048885e-02 1.88224478e+02
4.87207226e-02 1.88593924e+02
4.85306018e-02 1.88953313e+02
4.83395407e-02 1.89313371e+02
4.82661837e-02 1.90576382e+02
4.81908495e-02 1.91831994e+02
4.81119864e-02 1.93069508e+02
4.80269313e-02 1.94273959e+02
4.79411731e-02 1.95473663e+02
110                                                             ! ANGINN                              - INNER ANGLE THRESHOLD
0 0 0 0                                                         ! NOUTE TOUTSE TOUTFE NSPOOLE         - ELEV STATION OUTPUT INFO (UNIT 61)
0                                                               ! NSTAE                               - TOTAL NUMBER OF ELEVATION RECORDING STATIONS
0 0 0 0                                                         ! NOUTV TOUTSV TOUTFV NSPOOLV         - VELOCITY STATION OUTPUT INFO (UNIT 62)
0                                                               ! NSTAV                               - TOTAL NUMBER OF VELOCITY RECORDING STATIONS
0 0.000000 0.000000 0                                           ! NOUTGE TOUTSGE TOUTFGE NSPOOLGE     - GLOBAL ELEVATION OUTPUT INFO (UNIT 63)
0 0.000000 0.000000 0                                           ! NOUTGV TOUTSGV TOUTFGV NSPOOLGV     - GLOBAL VELOCITY OUTPUT INFO (UNIT 64)
0                                                               ! NFREQ                              
0 0 0 0                                                         ! THAS THAF NHAINC FMV                - HARMONIC ANALYSIS PARAMETERS
0 0 0 0                                                         ! NHASE NHASV NHAGE NHAGV             - CONTROL HARMONIC ANALYSIS AND OUTPUT TO UNITS 51,52,53,54
5 43200                                                         ! NHSTAR NHSINC                       - HOT START FILE GENERATION PARAMETERS
1 0 1E-08 25                                                    ! ITITER ISLDIA CONVCR ITMAX          - ALGEBRAIC SOLUTION PARAMETERS
                                                                ! NCPROJ                              - PROJECT TITLE
                                                                ! NCINST                              - PROJECT INSTITUTION
                                                                ! NCSOUR                              - PROJECT SOURCE
                                                                ! NCHIST                              - PROJECT HISTORY
                                                                ! NCREF                               - PROJECT REFERENCES
                                                                ! NCCOM                               - PROJECT COMMENTS
                                                                ! NCHOST                              - PROJECT HOST
                                                                ! NCONV                               - CONVENTIONS
                                                                ! NCCONT                              - CONTACT INFORMATION
2015-12-14 00:00                                                ! NCDATE                              - forcing start date
&metControl WindDragLimit=0.0025, DragLawString=default, outputWindDrag=F, invertedBarometerOnElevationBoundary=T \
